21
Frame 4
 N          0.060710045329        0.717969977978        3.846191663207
 N          0.016210844392        1.374054185780        1.717652112626
 H         -0.149644096374        0.833726836198        4.824137156125
 H          0.118539685367        2.818435477957        3.251548665678
 H          0.090356037721       -1.924785236420        0.850623168227
 H          0.038856447621        1.720802748404       -0.678589462034
 H         -0.134541108896        2.019537296238       -3.082439493052
 H          0.009413483494       -2.182923554970       -3.738383073383
 H          0.006114907135       -2.607042937226       -1.257263730030
 C          0.094598606357        1.744473477539        2.927804122014
 C         -0.086040036829       -0.060922916048        1.754276860608
 C         -0.122257140011       -0.560018935327        3.110216524899
 C          0.050749659545       -0.825004550272        0.592176697686
 C          0.152603447801       -0.508691609335       -0.739354579621
 C         -0.004103225244        0.865343980174       -1.291268327618
 C         -0.078070602000        1.011368861600       -2.640997987022
 C         -0.059007903345       -0.052334485766       -3.585354701241
 C          0.064041775038       -1.374271303786       -3.029833416041
 C          0.093726842144       -1.570666230878       -1.676947447381
 O         -0.142239944338       -1.636562187546        3.649875364750
 O         -0.020017724908        0.197511105707       -4.804070118397
