21
Frame 4
 N          0.011235326546        0.667262225730        3.900284203935
 N         -0.132901443517        1.505411303202        1.841926549044
 H          0.103117665497        0.650414777379        4.896601470180
 H         -0.589843873777        2.753666613432        3.453386619934
 H         -0.003480252672       -1.767102385720        0.791743222553
 H          0.357608369478        1.670469729162       -0.719209162898
 H          0.281019075269        1.976148346263       -3.211304578268
 H         -0.243146907642       -2.270642916028       -3.689082776862
 H         -0.025728448742       -2.562122111128       -1.230660523990
 C         -0.228107604502        1.798375144556        3.109821012498
 C         -0.010053562203        0.061325720759        1.742376866098
 C          0.077792827512       -0.512991232562        3.103571712149
 C          0.030783838072       -0.668125050574        0.603756059275
 C          0.139579732637       -0.452629541811       -0.763695826438
 C          0.287085057087        0.808549215450       -1.387053009160
 C          0.264078632506        1.010739168457       -2.744468937253
 C         -0.041780391503       -0.095830906460       -3.664567442412
 C         -0.253342181692       -1.431092571708       -2.982442639534
 C         -0.008569011623       -1.589468195859       -1.665150434526
 O          0.253559079398       -1.670712638738        3.478515337054
 O         -0.268905926130        0.118355306198       -4.864347721380
