21
Frame 4
 N         -0.034532393758        0.722172804091        3.846423500556
 N         -0.167507969102        1.410383694498        1.707688033463
 H         -0.138112740196        0.842958931007        4.852677078836
 H         -0.255759834138        2.805896131211        3.360720872181
 H          0.183006307876       -1.887943065092        0.948909122223
 H          0.408250732609        1.572085264234       -0.679085056296
 H          0.149304976065        2.083589740924       -3.021632993100
 H         -0.135505482917       -2.191778336823       -3.781040308525
 H         -0.147377298838       -2.667245444431       -1.384759178125
 C         -0.170233553457        1.816568860078        2.953814467106
 C          0.008251275975        0.017598866935        1.734200833615
 C          0.063260245517       -0.462464969044        3.139713914706
 C          0.111958131859       -0.847021413541        0.644840560260
 C          0.088112283486       -0.612903178052       -0.773662312293
 C          0.148504143928        0.746163675433       -1.314881708718
 C          0.119763963563        1.034082007729       -2.650072725825
 C         -0.082185286083       -0.016366763364       -3.624059931844
 C         -0.054567598461       -1.389910119596       -3.050839107536
 C         -0.056735035862       -1.623047658468       -1.717594160516
 O          0.192902674919       -1.603524643571        3.622090248367
 O         -0.230797542984        0.250705615843       -4.813451148535
