21
Frame 4
 N         -0.146155362669        0.724835844471        3.945831499158
 N         -0.104142406636        1.420620292544        1.796515496845
 H         -0.126248291699        0.747617045433        4.937107501824
 H         -0.312627207624        2.826977587298        3.362459228538
 H          0.294986226447       -1.844034680434        0.888879623987
 H          0.295042143251        1.610346576058       -0.616170330772
 H          0.203215764388        2.002194715238       -3.062625980435
 H         -0.192034639540       -2.282887137752       -3.745844564743
 H         -0.248530382555       -2.575621745367       -1.379056547153
 C         -0.134173621853        1.776376164143        3.047826260930
 C          0.088151063374        0.037685306937        1.735065585132
 C          0.000046342473       -0.459207854273        3.130529997197
 C          0.250565488555       -0.789443398104        0.616781991320
 C          0.190373528842       -0.539868809157       -0.753172254628
 C          0.129741884488        0.782637448520       -1.329649419362
 C          0.109127715874        1.010178255350       -2.670719789519
 C         -0.084613599849       -0.066036962861       -3.715112361982
 C         -0.175987139188       -1.398127683137       -3.119857977072
 C         -0.005876350257       -1.581441658309       -1.749552218729
 O          0.159425333613       -1.579381637485        3.602200146611
 O         -0.190286489434        0.176582330886       -4.921435887146
