21
Frame 4
 N         -0.094724366024        0.717461628988        3.941180240832
 N          0.180260138487        1.432500877896        1.817554832929
 H         -0.027314057019        0.753631413147        4.971319399708
 H          0.390499641672        2.769918368463        3.411838404214
 H         -0.346429645960       -1.781285184138        0.889246593564
 H         -0.235765811532        1.640285372344       -0.685808114845
 H         -0.183133383315        1.995992717950       -3.181086181186
 H          0.284168850700       -2.191289324187       -3.806847232029
 H          0.410992042062       -2.594661301157       -1.268988431856
 C          0.237004277647        1.742657089227        3.095765986289
 C         -0.024862626391        0.059082079211        1.727666770539
 C         -0.197066840143       -0.468276906879        3.111125096509
 C         -0.084615612036       -0.753258382389        0.584514660605
 C          0.025590195387       -0.518234910937       -0.787970119812
 C         -0.056711812276        0.773652487415       -1.348986464487
 C         -0.021563342491        1.005217283702       -2.702864801055
 C         -0.068285975627       -0.071703912671       -3.649153753988
 C          0.165454614337       -1.404893962665       -3.081596850955
 C          0.146274893259       -1.632816917863       -1.734836545352
 O         -0.274316081667       -1.607268120217        3.571567777344
 O         -0.225455099069        0.133289604760       -4.873641266968
