21
Frame 4
 N          0.161802264529        0.634956651917        3.903179375071
 N         -0.142299566144        1.490233653493        1.859080647052
 H          0.267161825385        0.594587450517        4.926860889114
 H         -0.204532689169        2.740008430325        3.505406727634
 H         -0.198382427572       -1.697342134540        0.880416534120
 H         -0.212977156719        1.721098284051       -0.730929131993
 H          0.229307468059        2.043532386117       -3.159410420061
 H          0.118758637860       -2.290905583483       -3.691924795364
 H         -0.052655122403       -2.525399978095       -1.166083160472
 C          0.055502890743        1.768340288165        3.142100776155
 C         -0.024926579042        0.075584357222        1.752736181504
 C          0.127999316121       -0.494821523283        3.082097473885
 C         -0.088562399472       -0.640452995945        0.593912184096
 C         -0.138993380881       -0.449398238139       -0.816136112337
 C         -0.168163933877        0.862038933266       -1.410857289231
 C          0.032416808832        1.028660170628       -2.775620944524
 C          0.042984342325       -0.123801033700       -3.707728288359
 C          0.029207208518       -1.451047671169       -3.042079895675
 C         -0.050530508150       -1.566019553077       -1.685896881772
 O          0.041836177286       -1.686539833999        3.502183074143
 O          0.175046823770       -0.033312060269       -4.961306942985
