21
Frame 4
 N          0.097453328534        0.672305321187        3.874922143174
 N          0.096797137495        1.463476263203        1.792871527998
 H         -0.213027341928        0.646006866657        4.824863925328
 H         -0.091413494292        2.791499030946        3.464712096896
 H          0.016852955290       -1.817901936224        0.852486539808
 H         -0.028785214369        1.675480360434       -0.618655095474
 H         -0.060527508475        1.952973236910       -3.126938369763
 H         -0.146994409395       -2.237827905326       -3.773355860553
 H         -0.023672594511       -2.552815534246       -1.227644224373
 C         -0.007262193117        1.785712171849        3.065610136477
 C          0.068409592333        0.084128105482        1.742136402211
 C          0.036730310093       -0.471961629777        3.090651790963
 C          0.065591129537       -0.741227371724        0.606613250811
 C          0.074139781039       -0.454939161684       -0.757434147630
 C          0.047866637040        0.849284726199       -1.314798302692
 C         -0.020527298422        0.971545308618       -2.707160613813
 C         -0.013284846945       -0.116772755557       -3.680174846482
 C         -0.024340088421       -1.426952586194       -3.050321971054
 C          0.045176039656       -1.554762770196       -1.700640753476
 O         -0.015242735730       -1.614766756141        3.531275184411
 O          0.096060814587        0.097517015586       -4.889018812766
