21
Frame 4
 N          0.029223848813        0.733209124262        3.873478845044
 N         -0.135041240974        1.477062433587        1.765057054175
 H          0.386223328145        0.623588807834        4.794285007633
 H         -0.025625194022        2.866840980267        3.424781625493
 H         -0.260692539108       -1.828437103546        0.982270309781
 H         -0.096371886153        1.571405514297       -0.588849444450
 H         -0.139941730996        2.052399922716       -3.008933160400
 H          0.130710043030       -2.224372281108       -3.739161116557
 H         -0.124707834317       -2.667751709383       -1.382864306166
 C          0.016811837234        1.825217879749        3.013951756020
 C         -0.104758412290        0.102309720934        1.709712636938
 C         -0.034007755337       -0.433487157353        3.029619099819
 C         -0.094152764019       -0.812290526250        0.659243799652
 C          0.013500886583       -0.534001647333       -0.749690369049
 C         -0.059673206185        0.782810149588       -1.297798411246
 C         -0.046654731438        1.050631227061       -2.664240744394
 C          0.183584266782       -0.085633210733       -3.609708125480
 C          0.117255610315       -1.384341346820       -3.057662624284
 C         -0.042110215971       -1.621417334095       -1.737416680896
 O          0.063939057546       -1.587118606861        3.422255880819
 O          0.222488632362        0.093375163186       -4.838331032452
