21
Frame 4
 N         -0.096633569851        0.690508374679        3.866111450401
 N          0.015177150432        1.366583056598        1.683224015214
 H          0.054194870824        0.716687247531        4.881578506708
 H         -0.119167784252        2.849193427220        3.208912194388
 H         -0.097805775494       -1.911640216394        0.833817657650
 H          0.076682514021        1.697455187756       -0.628946283721
 H          0.202575194004        2.052747859057       -3.088193804771
 H         -0.030515055781       -2.233781872414       -3.739164083206
 H          0.038152824789       -2.592542457216       -1.255462803015
 C         -0.107526214630        1.774276234887        2.913137453885
 C         -0.076639714899       -0.023805318448        1.744687385372
 C          0.076925066444       -0.499360369611        3.140372792920
 C         -0.014008379249       -0.837610065527        0.637330948392
 C         -0.065645039107       -0.498794990848       -0.741949374100
 C          0.006536331346        0.846495159908       -1.276987709132
 C          0.067686750103        1.050979674205       -2.632267526575
 C         -0.075976107804       -0.070404543389       -3.634567658980
 C         -0.006014036564       -1.401343021496       -3.053607187127
 C          0.001804012846       -1.582129820294       -1.673786428215
 O          0.202605200268       -1.608230850759        3.660239216408
 O         -0.052408237448        0.214717304554       -4.844478762494
