21
Frame 4
 N          0.126482549152        0.688568495733        3.847769395444
 N          0.001862902152        1.360691194286        1.731135907986
 H         -0.179601704064        0.760110116142        4.809295789310
 H          0.048223154148        2.839480261238        3.265976612764
 H          0.197272113309       -1.860232438945        0.838355678441
 H          0.256818593490        1.713497568391       -0.627289636138
 H         -0.011081483002        2.087876960282       -3.050015251444
 H          0.054160840636       -2.252143569142       -3.748801535702
 H          0.147546775292       -2.529457418898       -1.174839121319
 C          0.001809948908        1.757711208901        2.970473871257
 C          0.003964096842       -0.030434091372        1.750686152446
 C         -0.046489456278       -0.554611729977        3.094062514890
 C          0.031442625651       -0.796118650280        0.618977855110
 C          0.079799478569       -0.457459807343       -0.747311128035
 C          0.047494832574        0.858984890806       -1.302799031384
 C         -0.125529564656        1.057715390852       -2.649968184178
 C         -0.144236599758       -0.093238171110       -3.622622798024
 C          0.017012514104       -1.407458839121       -3.023299014444
 C          0.095853838486       -1.531188297866       -1.673229010088
 O         -0.365264535226       -1.680558699402        3.556097790369
 O         -0.237540920327        0.068265626824       -4.862656857259
