21
Frame 4
 N         -0.141925579844        0.711875250366        3.950391967963
 N         -0.134333919968        1.458237982013        1.783975617371
 H          0.254823072399        0.747932736163        4.892973206065
 H         -0.096250128264        2.901858343601        3.278010342958
 H         -0.157798081146       -1.906098082363        0.804613972311
 H          0.047851503318        1.657337600945       -0.617325755011
 H          0.033026560703        2.028339893591       -3.036694842048
 H          0.008772986934       -2.216675278583       -3.746668221933
 H         -0.065980973232       -2.652369680905       -1.334849372910
 C         -0.124882533223        1.793005541308        3.045197817579
 C         -0.010955216699        0.034328060439        1.746867038053
 C          0.028767806199       -0.501082257522        3.127375636916
 C         -0.059746738415       -0.830752911795        0.610603733533
 C         -0.044125985451       -0.529092394156       -0.765037526891
 C          0.003437588114        0.816744306940       -1.321575427029
 C          0.103021234420        1.014771447663       -2.664404363164
 C          0.064078618445       -0.068299062912       -3.656709002493
 C         -0.056708669943       -1.391905814761       -3.076021641779
 C         -0.072132295304       -1.631186035648       -1.727188748619
 O          0.278537070468       -1.605743029009        3.563921149099
 O          0.142523680488        0.168773384624       -4.857455579972
