21
Frame 4
 N          0.014506676996        0.689097388840        3.829542992395
 N         -0.058788573501        1.413458369386        1.688924234731
 H          0.106507991160        0.783486007519        4.840797594666
 H         -0.174939157603        2.791238991132        3.248370257681
 H         -0.022289111448       -1.867720946487        0.943374020490
 H         -0.154413259625        1.608117370921       -0.611410803640
 H         -0.062940499015        2.028632366839       -2.953685195683
 H         -0.176622755522       -2.188409736190       -3.714106617087
 H         -0.118965748358       -2.579695378674       -1.275616652354
 C          0.029523653434        1.770205266651        2.949172554270
 C         -0.028928076064        0.017335286450        1.702830791957
 C          0.048486413827       -0.468290381702        3.091380455391
 C         -0.072129996620       -0.848920871206        0.642448877777
 C         -0.034080633193       -0.539997588758       -0.735445520619
 C         -0.006179424456        0.767223286669       -1.307578661494
 C          0.133237923859        1.023229925167       -2.609214535684
 C          0.149891229247       -0.047243303107       -3.649006587721
 C         -0.013166764989       -1.339798072881       -3.049451576660
 C         -0.084814552598       -1.594002571965       -1.687899914691
 O          0.220920835505       -1.600558400885        3.522646426434
 O          0.305183828965        0.182612992282       -4.866072140161
