21
Frame 4
 N          0.015212783062        0.661614315037        3.909700247246
 N          0.017491749295        1.487229079140        1.794771305164
 H          0.199462537510        0.703361238773        4.875639234245
 H          0.152343604738        2.772741513206        3.401858162659
 H         -0.094441359670       -1.816963136192        0.885204749884
 H         -0.069803437813        1.690130299803       -0.708848356751
 H         -0.197123676099        2.008302415551       -3.132798667112
 H          0.099036063334       -2.247775719495       -3.655978962338
 H          0.104588607188       -2.632809789294       -1.319023323765
 C          0.115839784054        1.762555011864        3.051060621659
 C         -0.152127121654        0.078315195816        1.757637928042
 C         -0.166808892293       -0.504729329023        3.146219010519
 C         -0.119857552334       -0.754033887151        0.650998221487
 C          0.081359809126       -0.445844223104       -0.756062254729
 C         -0.079633511679        0.814083450252       -1.355950308343
 C         -0.071346752620        1.007793277061       -2.742842637806
 C          0.068984282426       -0.053149447014       -3.695326326898
 C          0.158380082004       -1.376552344919       -3.037440369675
 C          0.082157095242       -1.573322248336       -1.679997018512
 O         -0.176660244327       -1.669393221242        3.531948834750
 O          0.032946150509        0.088447549267       -4.920770089723
