21
Frame 4
 N          0.059349726555        0.663420653940        3.869718992631
 N          0.201929708667        1.460367743179        1.784946963160
 H         -0.049783189284        0.591998619170        4.849538407412
 H          0.259032146621        2.764246041980        3.369275771265
 H          0.064577245637       -1.829402893673        0.814716186640
 H         -0.248668734760        1.621106986869       -0.607256223122
 H         -0.217945469434        2.007438790230       -3.107316876838
 H          0.205961103221       -2.278053552485       -3.669166053036
 H          0.114545306400       -2.574343078337       -1.219371542918
 C          0.230090992154        1.754580578308        3.030736253729
 C          0.033704745537        0.059967388116        1.699655996045
 C         -0.119942915039       -0.445400491788        3.110240851967
 C         -0.018776833672       -0.750399631075        0.572973356506
 C          0.003363139186       -0.438578918831       -0.802335120483
 C         -0.194568152375        0.850954612752       -1.334695041566
 C         -0.133220314104        1.044639632381       -2.668404727582
 C          0.100182152721       -0.070315059351       -3.629469626828
 C          0.182245142033       -1.414168184888       -3.048607762201
 C          0.068916068154       -1.565609383390       -1.704658970630
 O         -0.481706845751       -1.529431087567        3.547046320383
 O         -0.059285022467        0.076981234460       -4.857567154533
