21
Frame 4
 N          0.079175900244        0.651859122535        3.921074223053
 N         -0.264805477124        1.522120223796        1.854549876788
 H         -0.160575976476        0.634790241904        4.891554071436
 H         -0.126874552912        2.788347553150        3.600204230833
 H          0.127565756405       -1.768951811780        0.767680432181
 H          0.169201407614        1.707843997761       -0.741038050269
 H          0.339997347314        2.042216060224       -3.164966677309
 H         -0.192785848433       -2.340691339294       -3.604583535715
 H          0.098216345525       -2.628655334034       -1.277838354251
 C         -0.162036527231        1.797888217067        3.123238392056
 C         -0.125502236018        0.105086042404        1.741622726588
 C          0.104312110949       -0.482750584833        3.076620480997
 C         -0.063623089952       -0.681700449724        0.617947574334
 C          0.024709280190       -0.473170210997       -0.777207117607
 C          0.110575866484        0.851779129533       -1.408956511331
 C          0.158167210281        1.004904092679       -2.753800513619
 C         -0.040181271891       -0.097988817806       -3.685005853784
 C         -0.162169552583       -1.424772381513       -3.002388876126
 C         -0.075958331813       -1.582632129154       -1.663305322792
 O          0.302792049374       -1.669327987335        3.413793812384
 O         -0.140200409948        0.043806365415       -4.929195007846
