21
Frame 4
 N         -0.093445303281        0.707924117897        3.859336030035
 N         -0.067019718894        1.539482664080        1.766700727096
 H          0.055948105679        0.722304503894        4.853297351362
 H         -0.053579224310        2.810148440602        3.459501372098
 H          0.194906468826       -1.828405133055        0.957672006862
 H          0.185640141367        1.562777913305       -0.577645928585
 H         -0.041293003637        2.057951416968       -3.061193110264
 H         -0.062765753277       -2.235614196600       -3.859657483339
 H         -0.019472954072       -2.647762054304       -1.327006440700
 C         -0.041106782013        1.819167351000        3.023046057941
 C         -0.074968753906        0.119959491259        1.716444303192
 C         -0.054281020971       -0.452994260949        3.078751127742
 C         -0.029264706623       -0.781222667020        0.621298112624
 C          0.024265358781       -0.566227513687       -0.770603468408
 C          0.125226336784        0.766364163802       -1.296329228154
 C          0.004865141061        1.017904026270       -2.618690553914
 C          0.000608914270       -0.085162168682       -3.605708669922
 C         -0.068201874799       -1.433043405601       -3.097867615670
 C          0.030358933274       -1.626512203563       -1.733518167709
 O          0.006847959616       -1.607310057277        3.468644520197
 O         -0.023268263875        0.140269571660       -4.856470942484
