21
Frame 4
 N          0.029461827672        0.640200838066        3.904184502529
 N         -0.043958849112        1.457805684519        1.786254545816
 H          0.337878734152        0.598746273135        4.876122284026
 H          0.391041054896        2.740318997191        3.437868443535
 H         -0.220948316520       -1.781134918708        0.819859243778
 H         -0.248490214367        1.692576112199       -0.667561883167
 H         -0.068658895175        1.980346977266       -3.285555630187
 H          0.426888237788       -2.239998359746       -3.651043140921
 H          0.293795301749       -2.454778363377       -1.223133460049
 C          0.120702164299        1.749511677159        3.057432290604
 C         -0.152580101827        0.072433314331        1.752369859619
 C         -0.183743032655       -0.515745630417        3.079749287559
 C         -0.163612820308       -0.746643889703        0.630245021734
 C         -0.132222871644       -0.424585807627       -0.752834329870
 C         -0.163568813023        0.894922005548       -1.360670616891
 C         -0.013551097971        1.031114946722       -2.761043735200
 C          0.000310873568       -0.136862179134       -3.670109860984
 C          0.209650441827       -1.380970314708       -2.994453814865
 C          0.078710768360       -1.486847109789       -1.604937053019
 O         -0.347634324637       -1.668178123382        3.532502023700
 O         -0.149470067073       -0.022232129545       -4.905243977745
