21
Frame 4
 N         -0.026125139847        0.668114908747        3.905065045878
 N          0.130775882150        1.522179372363        1.797390657410
 H         -0.163627814642        0.650519046200        4.921164469639
 H          0.077297307623        2.770988435841        3.520077374352
 H          0.052030559176       -1.742568500172        0.849373743923
 H         -0.077945211549        1.661886850963       -0.681223995934
 H         -0.027833097488        2.007075519377       -3.127683335454
 H          0.030807635384       -2.322178474657       -3.732236976313
 H          0.061888840595       -2.608115444801       -1.335223225778
 C          0.176911534414        1.786566799842        3.107604153021
 C         -0.036399177803        0.141270937990        1.751016070623
 C         -0.052806322805       -0.497040617095        3.075896048888
 C         -0.092854477566       -0.674957714929        0.644543290107
 C          0.014739083342       -0.472435594092       -0.772911649919
 C         -0.126496881217        0.815454053723       -1.386253743500
 C         -0.090031396494        0.998779777257       -2.736279027216
 C         -0.015900450766       -0.100836263510       -3.657106498463
 C          0.035290114167       -1.443089895631       -3.055358272147
 C          0.008134812273       -1.595004466092       -1.702189486549
 O          0.017631800059       -1.650825284859        3.495241194245
 O          0.104512400994        0.084216553535       -4.880905836813
