21
Frame 4
 N         -0.190190930106        0.724460328613        3.859807421746
 N          0.109812614129        1.467346674250        1.780690075557
 H         -0.112912001847        0.662746776001        4.873976500935
 H          0.205229361413        2.789701625133        3.356897329480
 H         -0.007686277129       -1.768051163334        0.917616303691
 H         -0.059276054746        1.645661044588       -0.618683810184
 H         -0.184517979042        2.020542489261       -3.053511106058
 H         -0.063976179694       -2.268917315452       -3.666014422241
 H          0.122913454646       -2.674131870082       -1.301383555687
 C          0.038176376163        1.764322144714        3.034330209927
 C         -0.014235988921        0.050998542851        1.737536669848
 C         -0.155410618774       -0.475469125109        3.038380145156
 C          0.095900926314       -0.742984285376        0.614717226444
 C          0.207754013792       -0.526330748679       -0.742175533633
 C          0.134859131365        0.823649122611       -1.312525853214
 C          0.050289946962        1.014724015636       -2.661773513966
 C         -0.042009610561       -0.042016360410       -3.675142876091
 C          0.110775949834       -1.375654714537       -3.075946428022
 C          0.097688405036       -1.602513958602       -1.680500954747
 O         -0.130230453941       -1.615966481406        3.494233882699
 O         -0.212954084892        0.127883259332       -4.920527711642
