21
Frame 4
 N          0.016851826419        0.706360390010        3.870120155722
 N          0.091086778348        1.421512147962        1.688706140794
 H         -0.204624340500        0.683122320459        4.852842016825
 H          0.223047006209        2.818642629095        3.224227551194
 H         -0.145831762030       -1.833202603774        0.949094211654
 H          0.025102449282        1.611270505570       -0.565000046206
 H         -0.016107790448        2.042859508002       -3.060665337673
 H          0.015167262943       -2.191044161206       -3.747894145910
 H          0.329204480001       -2.583360423103       -1.260961119879
 C         -0.028456676051        1.804022930396        2.941934448694
 C          0.004682048433        0.011834011693        1.732059489762
 C         -0.079953591103       -0.473777234761        3.085219975176
 C          0.057741711488       -0.831390443109        0.622727453647
 C          0.109976834850       -0.532981352548       -0.756034371636
 C          0.009672763319        0.813631014193       -1.305611107504
 C         -0.054839707683        1.035990461731       -2.637470448699
 C         -0.139724991195       -0.049444965129       -3.635247430486
 C          0.000290775671       -1.368095205156       -3.043075126314
 C          0.148599750820       -1.611019519462       -1.690788432562
 O         -0.176439614486       -1.641660307450        3.593466229325
 O         -0.185445214288        0.166730296585       -4.857650105924
