21
Frame 4
 N         -0.082822894966        0.595212498795        3.898615242958
 N          0.204857132384        1.471757305587        1.846368509303
 H         -0.246347828904        0.679697455392        4.874463649789
 H         -0.223379627326        2.707811209931        3.519277685435
 H          0.216412688081       -1.778195937936        0.810616601743
 H          0.147453482246        1.761886031524       -0.755600009949
 H          0.003857327734        2.030369987118       -3.281655681167
 H         -0.203782452237       -2.320308729746       -3.647133843478
 H         -0.034456467604       -2.457420453203       -1.112291264128
 C         -0.072668257938        1.741211051606        3.081843080724
 C          0.273626542920        0.064269334660        1.761079761872
 C          0.037818036081       -0.518211512071        3.088450912959
 C          0.185927635325       -0.712853537688        0.619261391451
 C          0.077001818287       -0.432729803733       -0.784411938846
 C         -0.006412578268        0.888342270741       -1.379715765147
 C         -0.008538043556        1.036285842217       -2.757735423282
 C          0.012648177232       -0.123598338839       -3.632981344499
 C         -0.121574331106       -1.432957701430       -3.035460939598
 C         -0.090492873444       -1.528164631302       -1.668908448022
 O         -0.067158671039       -1.674153200861        3.437250031039
 O         -0.001968813902        0.001750859239       -4.881332209157
