21
Frame 4
 N         -0.023632550660        0.661039370201        3.867788661511
 N          0.005480302266        1.481876217017        1.769867860430
 H         -0.132185345122        0.689918925252        4.875765733870
 H         -0.021578058568        2.759268176551        3.402407332327
 H          0.162415286646       -1.802624922738        0.859033311981
 H         -0.073555492925        1.784861039859       -0.737016498425
 H          0.115686320300        2.045548589710       -3.122761521880
 H         -0.112100676180       -2.285077773084       -3.744434882193
 H          0.109139825003       -2.569929342924       -1.215586859584
 C          0.035811395043        1.713840103088        3.029237401856
 C         -0.015237116963        0.037764069292        1.773150761473
 C         -0.062835891690       -0.515928308409        3.093645647254
 C          0.082016524782       -0.722660855663        0.656440914450
 C          0.121577357386       -0.437143363564       -0.762613210254
 C          0.055130004866        0.892027934463       -1.360335778718
 C          0.138301710923        1.015238791467       -2.717258049224
 C         -0.080473924711       -0.115545081997       -3.623273080709
 C         -0.100063716036       -1.479700880089       -2.997991146988
 C          0.112200890461       -1.554751502445       -1.665000097182
 O         -0.114119645711       -1.683128078446        3.487474636390
 O         -0.201977199108        0.085106892459       -4.868541136384
