21
Frame 4
 N         -0.167574770706        0.631694373011        3.794849936157
 N          0.070173583939        1.467304031476        1.724276842710
 H         -0.500948558074        0.691787988594        4.710304231633
 H         -0.496640814259        2.753335217279        3.340812347243
 H          0.231540979532       -1.832430949461        0.908863090988
 H          0.409887453618        1.720437335559       -0.615374457229
 H          0.201811955248        1.995744562828       -3.068253437703
 H         -0.545684272584       -2.139751019453       -3.671816762070
 H         -0.222776076802       -2.587162929513       -1.237497276074
 C         -0.225340174458        1.763507359044        2.939602810155
 C          0.279153882371        0.076555664200        1.743429712638
 C          0.154969968451       -0.498654551882        3.087827513738
 C          0.287824934272       -0.769909403042        0.628417452780
 C          0.256098577526       -0.524689305749       -0.777218222916
 C          0.275460428739        0.849975366959       -1.318045790597
 C          0.174566048743        0.993963651979       -2.678120805196
 C         -0.100641031111       -0.053816225548       -3.591279495481
 C         -0.158715417522       -1.379807508012       -2.986715453312
 C          0.044614981987       -1.626616929492       -1.648809245188
 O          0.316906456574       -1.640549465734        3.532008836405
 O         -0.284688135486        0.109082736959       -4.817261828681
