21
Frame 4
 N         -0.112388151265        0.686164468341        3.847498258470
 N         -0.022177739144        1.497368791082        1.765407163838
 H          0.090751051836        0.720125590333        4.853200668986
 H         -0.059890818750        2.782838429100        3.469735721332
 H         -0.065367432741       -1.796505991998        0.927559233964
 H          0.166153083009        1.658744941938       -0.618518106878
 H         -0.041147449123        1.990694292317       -3.124666495378
 H         -0.083280794725       -2.226269041770       -3.824983453016
 H          0.020904230724       -2.702578134404       -1.290525930240
 C         -0.089268761125        1.831205146750        3.014979261987
 C         -0.052208112237        0.111440142245        1.730333118116
 C         -0.017861917223       -0.486526597114        3.063502679040
 C          0.063332483073       -0.739460735083        0.649721089958
 C          0.158238529941       -0.548147917462       -0.747265157747
 C          0.135127549928        0.815006648893       -1.317273190777
 C         -0.050979210757        1.036758197421       -2.655089661654
 C         -0.007045355628       -0.063976894527       -3.626565838992
 C          0.031822522120       -1.425562852933       -3.036827214451
 C          0.057305677231       -1.642263842627       -1.709550568343
 O         -0.023520620613       -1.652283758820        3.481043712248
 O         -0.098498764530        0.153229118320       -4.851715290463
