21
Frame 4
 N          0.080799685034        0.753537952311        3.808347266340
 N         -0.039204303772        1.379123153690        1.697378115347
 H         -0.273640479420        0.885792212896        4.751945403337
 H          0.062519912090        2.790929404913        3.215349217687
 H          0.188459138430       -1.938147140202        0.755638650299
 H         -0.123840301791        1.564220323507       -0.450945942143
 H          0.072099340648        2.031738335412       -3.005115367935
 H          0.046001663256       -2.162671789432       -3.798375986279
 H         -0.169381169815       -2.643600038286       -1.286961698815
 C          0.053209677683        1.782886910944        2.904062655962
 C          0.067698617331       -0.021887695253        1.736083813992
 C          0.021588440984       -0.491901625414        3.129668007884
 C          0.058034057711       -0.845542732049        0.583949428640
 C          0.009081832820       -0.545170972832       -0.779752286987
 C         -0.089341477257        0.811345003803       -1.233848442692
 C         -0.042825783419        1.029472499501       -2.577804779985
 C          0.022657405182       -0.006217126775       -3.588681518660
 C         -0.025665239261       -1.364709567283       -3.041885608082
 C         -0.099522655781       -1.599979022781       -1.703608376355
 O          0.075197560467       -1.598196901978        3.690657559503
 O          0.106074078882        0.188978815309       -4.806100111057
