21
Frame 4
 N         -0.083029549388        0.636857380748        3.907312001391
 N         -0.055542820352        1.489452206250        1.802544999724
 H         -0.121143572873        0.647442454453        4.907128243637
 H          0.071126780987        2.778757474306        3.475882762528
 H          0.256661938681       -1.787449961436        0.922869543857
 H         -0.031138308933        1.782100462305       -0.781477270745
 H          0.151372966426        1.979882026617       -3.180861563398
 H         -0.052407578185       -2.336713687964       -3.701607075518
 H         -0.014378197079       -2.564031323957       -1.280180869631
 C         -0.033852922527        1.766636924207        3.070647761210
 C          0.066623952455        0.058635740873        1.744144690539
 C          0.020721129162       -0.513288907223        3.101045136637
 C          0.087130544010       -0.749232366875        0.637967601530
 C         -0.049455933613       -0.465251345180       -0.722430064765
 C         -0.054938039417        0.865074601823       -1.363293993391
 C          0.029089633593        1.013210589993       -2.748136700471
 C          0.004616056814       -0.078528294108       -3.680180542496
 C          0.015434686696       -1.419074893790       -3.057724820539
 C         -0.037758090024       -1.575510453301       -1.684108978601
 O         -0.061348355813       -1.646689428193        3.543025442274
 O         -0.107784320620        0.117720800454       -4.912566303771
