21
Frame 4
 N         -0.146572732553        0.615112338629        3.858097323895
 N          0.217002554089        1.523466961289        1.857115969917
 H         -0.608495589117        0.635105369335        4.756630220697
 H         -0.070060863623        2.752261661122        3.543640865091
 H          0.222465352108       -1.780216112987        0.909635188467
 H          0.344884963580        1.674713560180       -0.766774866018
 H         -0.110077815011        2.002320484290       -3.166074553102
 H         -0.203041729902       -2.244058397262       -3.602175781904
 H          0.023944025465       -2.562369590404       -1.197500985680
 C          0.031835807632        1.769592927637        3.110071495286
 C          0.215980622865        0.102788167690        1.753159790172
 C          0.063690314700       -0.506489999949        3.063056260939
 C          0.189321740846       -0.702818326504        0.620463631905
 C          0.154135944392       -0.422742334229       -0.772653848688
 C          0.138933123439        0.827941731646       -1.411205316386
 C         -0.042761344559        1.019255124856       -2.719246513951
 C         -0.141332755976       -0.098951272759       -3.691398497644
 C         -0.100152348388       -1.382829333639       -2.996114779696
 C          0.057420242550       -1.529312957635       -1.633012959263
 O         -0.048422976759       -1.692406783346        3.423103735540
 O         -0.188696535777       -0.000363217961       -4.938816379574
