21
Frame 4
 N         -0.227172573045        0.636267161388        3.944651927657
 N          0.147418726275        1.453698597152        1.876865867143
 H         -0.223287115321        0.578439786093        4.941343232729
 H         -0.033005042599        2.815636937161        3.457304093662
 H         -0.075425835387       -1.742833559823        0.889670985069
 H          0.303058297620        1.772907305140       -0.762451095917
 H         -0.038512474678        2.019029487930       -3.227176505774
 H         -0.028459167355       -2.314483019117       -3.709168168840
 H          0.165983864053       -2.566984935909       -1.335806929440
 C         -0.035261772759        1.776454697390        3.110368320724
 C          0.218498839222        0.097593211709        1.794187576194
 C         -0.044340306609       -0.536204288576        3.077608262586
 C          0.224469086243       -0.703813670840        0.627679798922
 C          0.126173009063       -0.400340905725       -0.750525739048
 C          0.132933869909        0.896856809122       -1.385763666965
 C         -0.061355785268        1.020090421165       -2.746007317471
 C         -0.187688944791       -0.125370187060       -3.679571657556
 C         -0.046447989592       -1.446949629912       -3.025301789009
 C          0.059918133311       -1.541960740573       -1.699662485646
 O         -0.114781834444       -1.657910511045        3.507705127023
 O         -0.262714983845       -0.030122965668       -4.905949836041
