21
Frame 4
 N         -0.052789463617        0.669520716763        3.878162592218
 N          0.103645503971        1.491772007113        1.768310494873
 H          0.082239444730        0.721983875859        4.903692093733
 H          0.014248705757        2.804926658538        3.449043497099
 H         -0.198323617666       -1.804224590139        0.919980811032
 H          0.069202218165        1.663665903796       -0.607319711943
 H          0.021666271514        1.989605293081       -3.069415554274
 H          0.135263959665       -2.252340258371       -3.762144101666
 H          0.119633341249       -2.547725630504       -1.278108184088
 C         -0.041065968251        1.792601172814        3.029058661958
 C         -0.045758606263        0.057030941904        1.681235711867
 C         -0.048664282896       -0.501708150149        3.069706289433
 C         -0.120530291182       -0.773825718454        0.568949767456
 C          0.010218831576       -0.517308028530       -0.820276288169
 C          0.024319698787        0.825665789746       -1.330629470109
 C         -0.039541360043        1.000254958001       -2.669061121260
 C         -0.086204324136       -0.107035365886       -3.629117947678
 C          0.054077298170       -1.412924072130       -3.068712294860
 C          0.073501585054       -1.574930998092       -1.714372762093
 O          0.023014538879       -1.625372626484        3.529123489334
 O         -0.098153483463        0.100368121124       -4.848105972864
