21
Frame 4
 N          0.002058540388        0.661848067435        3.917790654427
 N         -0.084289276664        1.498490765643        1.823652160793
 H         -0.076391118220        0.680599623874        4.916699726023
 H          0.101266796760        2.846796130215        3.469664371346
 H          0.071281686634       -1.794317851977        0.822761988742
 H         -0.056510574491        1.686332553229       -0.674006741227
 H          0.038701808067        2.019779426105       -3.143563243725
 H         -0.101453552157       -2.242319327756       -3.766974233371
 H          0.006692946036       -2.570671688291       -1.277543302411
 C         -0.092849897202        1.803454523714        3.078003823535
 C         -0.087193159167        0.074415296325        1.753319913612
 C          0.035120970520       -0.505259793978        3.123817450348
 C         -0.012359509476       -0.773172272401        0.582704056636
 C         -0.053946263057       -0.496445200004       -0.817942886663
 C          0.007163078188        0.822111387391       -1.348113396939
 C          0.064525264558        1.043604066210       -2.714857618405
 C         -0.018248217257       -0.115836436717       -3.643851180053
 C         -0.031869409671       -1.417912182308       -3.084198243134
 C          0.014404599436       -1.600213315232       -1.722672645716
 O          0.140997281914       -1.652546459208        3.563506871441
 O          0.132898004862        0.031262687731       -4.858197525260
