21
Frame 4
 N          0.172946929857        0.866387872804        3.814079367883
 N         -0.086644205506        1.393652044468        1.613950216528
 H         -0.234767161599        0.868327023519        4.771366908522
 H         -0.209035518747        2.865083652192        3.049562520029
 H          0.033451821197       -2.025496581373        0.912079014701
 H          0.186085341364        1.413405366672       -0.437995825174
 H          0.117619335624        2.140270556419       -2.749954191270
 H         -0.166892920441       -2.113379175717       -3.887579255880
 H          0.094002035483       -2.685244912282       -1.393110555569
 C         -0.048922540823        1.818015821327        2.849373635004
 C         -0.066536247383       -0.014501543582        1.688253259367
 C          0.022157395708       -0.437375482643        3.119753154022
 C          0.065453358862       -0.982538999226        0.638509230840
 C          0.139404104229       -0.685948861406       -0.764633656342
 C          0.201340126506        0.679732496417       -1.224873764400
 C          0.105434413378        1.073458661031       -2.496861669000
 C         -0.065974937374        0.036754256551       -3.567200127547
 C         -0.117580617075       -1.308565609422       -3.087031091777
 C          0.019512540512       -1.672804498799       -1.778511997153
 O          0.048552163621       -1.503006772292        3.708492004547
 O         -0.209605417393        0.273774685342       -4.777667177330
