21
Frame 4
 N         -0.126311889752        0.654465467127        3.902839486896
 N          0.126360640015        1.456040815829        1.798115473476
 H         -0.264908790787        0.597625704304        4.916129170200
 H         -0.085433317953        2.755379951549        3.449433564243
 H          0.262152187457       -1.799114634011        0.750423761138
 H          0.242997591456        1.705157875800       -0.737191559323
 H          0.107804222387        2.047233697704       -3.254805595519
 H          0.048078426633       -2.249741473152       -3.677079167781
 H         -0.061739621866       -2.517881542975       -1.148335764093
 C         -0.063036984386        1.743027616516        3.060787848353
 C          0.184713207927        0.033089292860        1.774224987534
 C         -0.042067160925       -0.512376494047        3.148871316012
 C          0.069564430732       -0.734471664316        0.623502411727
 C         -0.012816218001       -0.435417911746       -0.755240220526
 C          0.043263500109        0.864697670266       -1.403108243805
 C          0.034175400315        1.030642324462       -2.773353226991
 C         -0.136276502315       -0.092472858078       -3.704532330032
 C         -0.025192617463       -1.382748248155       -2.990820675000
 C         -0.080906947568       -1.534451868503       -1.635026135191
 O          0.025440941409       -1.632949029111        3.595891758855
 O         -0.245860497427        0.004265307677       -4.940726860176
