21
Frame 4
 N         -0.271196062657        0.677999887699        3.839868018455
 N          0.174509911802        1.488478784233        1.781102706859
 H          0.022833477502        0.797546982707        4.792821946269
 H         -0.008136144482        2.780968961209        3.442991263256
 H          0.144402417001       -1.835198958587        0.883576973777
 H         -0.098894774120        1.693118775287       -0.606831010405
 H          0.095257376242        1.975920054688       -3.087482733356
 H         -0.047773259812       -2.267349539441       -3.727392777000
 H          0.091978164921       -2.587207974562       -1.255808989786
 C          0.004197777023        1.745646277414        3.019758724337
 C          0.107247729386        0.072347664329        1.726926894817
 C         -0.079791483491       -0.483143394305        3.060322021786
 C          0.122587516261       -0.778054973570        0.585518522891
 C          0.052555962565       -0.481368162516       -0.794162368744
 C          0.030499802198        0.856927307359       -1.285503159870
 C          0.031289196829        0.994395348915       -2.628083120137
 C          0.003650947298       -0.098122283575       -3.635332442532
 C         -0.036707342631       -1.440468013592       -3.061037121411
 C          0.037541564277       -1.594290710016       -1.679278881524
 O         -0.156554671459       -1.679458877969        3.452398065897
 O         -0.219498104652        0.161312844293       -4.824372533580
