21
Frame 4
 N         -0.082841282495        0.670703110638        3.907361954453
 N         -0.068570181083        1.504299039482        1.824514302612
 H          0.289073191545        0.665592188968        4.838179187519
 H          0.106528439485        2.707684284656        3.540661995146
 H         -0.180449439021       -1.761625984402        0.909228978729
 H         -0.153977459760        1.709345093499       -0.751161671157
 H         -0.076775227574        2.043718291491       -3.118758169308
 H          0.054254582336       -2.296216981584       -3.693850089461
 H          0.073590426704       -2.585974529734       -1.255124128623
 C          0.039071641901        1.758159358674        3.083944518712
 C         -0.047647868043        0.085141055222        1.739122821491
 C         -0.047055223202       -0.477740832437        3.082075001874
 C         -0.079609778147       -0.700655950768        0.581902602804
 C         -0.056435269862       -0.480052063912       -0.792012388630
 C         -0.104926717236        0.842631961042       -1.392610782341
 C          0.005701961106        1.032507042622       -2.728605446651
 C          0.078790600701       -0.112029432689       -3.650717622930
 C          0.083919161278       -1.436224701739       -3.030115363256
 C          0.062429526259       -1.592660796343       -1.678654201297
 O         -0.042804578713       -1.638040342202        3.500790243831
 O          0.147733493821        0.061440189517       -4.916171743516
