21
Frame 4
 N         -0.087948458790        0.778337430863        3.856118669535
 N         -0.034823476692        1.316103106805        1.662405542161
 H         -0.042027588239        0.843877594514        4.836057540931
 H         -0.162042260707        2.857925999733        3.114336499658
 H          0.008373459613       -1.972332459396        0.950423547506
 H          0.133164344271        1.544280956880       -0.517896401619
 H          0.198840396540        2.111832906046       -2.971227156872
 H         -0.128329282824       -2.154622265527       -3.844717614813
 H         -0.030394473248       -2.650260232947       -1.372583223305
 C         -0.100381082298        1.816699454332        2.878493246797
 C         -0.029385042273       -0.097309963729        1.740736857893
 C         -0.003062643013       -0.493008569735        3.153665022474
 C          0.025459399182       -0.903426766084        0.661945336499
 C          0.062521964257       -0.561577596913       -0.753672371953
 C          0.113220019470        0.765592793234       -1.285488301543
 C          0.076118307806        1.070264498691       -2.613248400346
 C         -0.065575360315        0.020704213547       -3.598568853145
 C          0.036854870742       -1.390040155297       -3.064412152380
 C          0.003945942547       -1.609333615442       -1.725410334838
 O          0.216422978208       -1.543103446960        3.707933731122
 O         -0.190952014236        0.249396117383       -4.814891183763
