21
Frame 4
 N          0.171540969843        0.696859963000        3.866853447666
 N          0.107287383860        1.475931811376        1.747508068098
 H          0.197017210482        0.640135405578        4.885983224035
 H          0.194720440698        2.786415068452        3.443608843160
 H         -0.353105206060       -1.814202717708        0.947798085112
 H         -0.481241690046        1.603755966298       -0.669632888638
 H         -0.190967906012        2.067759698522       -3.081456152957
 H          0.289395201656       -2.183553203566       -3.797502567670
 H          0.022876681605       -2.536091642342       -1.221315307227
 C          0.232374222802        1.769274221918        3.001343649098
 C         -0.091646304154        0.080807916510        1.728178445501
 C         -0.065097520140       -0.496855213438        3.061233157674
 C         -0.202871759491       -0.783456885492        0.586648951386
 C         -0.089089402636       -0.479712848629       -0.758928048782
 C         -0.191975774853        0.814299510900       -1.355018768051
 C         -0.071218800457        1.000375623087       -2.709674436650
 C          0.162655587070       -0.102444991959       -3.656851276001
 C          0.212169941469       -1.393237510760       -3.026770167802
 C          0.134623635890       -1.563885984818       -1.662414094380
 O         -0.170478786928       -1.620276678165        3.569317581517
 O          0.183031875402        0.038102491236       -4.898909745089
