21
Frame 4
 N          0.007835016952        0.586636041307        3.916786571304
 N         -0.111724522674        1.566207867246        1.892735268094
 H          0.196496973460        0.502955990126        4.884505854540
 H         -0.026893079670        2.790071014991        3.678953787487
 H         -0.152424781052       -1.685398474826        0.905554846862
 H          0.103527844062        1.742791326267       -0.790258152702
 H          0.001441208822        1.990349350984       -3.214948100021
 H          0.124741500242       -2.292436308923       -3.689676851967
 H          0.061957673448       -2.487870876090       -1.195415759892
 C         -0.069890835121        1.784433458000        3.168015223166
 C         -0.128164945248        0.148259830587        1.732986120602
 C         -0.025272254589       -0.479925202301        3.013488083801
 C         -0.105317432136       -0.666341027231        0.582529521348
 C         -0.017994061458       -0.416692879947       -0.750606562366
 C          0.097031119527        0.866585855377       -1.416034591242
 C          0.037752446896        1.016531396619       -2.757263706188
 C         -0.004434457008       -0.159499416958       -3.693048067555
 C          0.023806921105       -1.461935322243       -3.010426746006
 C         -0.002604218257       -1.546740230529       -1.666744171302
 O          0.064215547613       -1.677197509972        3.344916848007
 O         -0.074085664915       -0.120784882485       -4.936049415971
