21
Frame 4
 N         -0.067538607819        0.706253821187        3.846424477706
 N         -0.016640453293        1.445004839527        1.762778515508
 H         -0.132647828534        0.702863444620        4.855619210166
 H          0.046961497239        2.827329277482        3.309716099815
 H          0.085123980263       -1.859349860302        0.896974785828
 H          0.258521095746        1.600375799483       -0.594060290722
 H         -0.153613785407        2.006806624811       -3.035068811110
 H         -0.115152105178       -2.196514580423       -3.825649174137
 H          0.173926102589       -2.623058325072       -1.256346699401
 C         -0.022965559292        1.804055401519        3.014288621949
 C          0.069907230863        0.043793032087        1.739791273228
 C         -0.088684816768       -0.452477172634        3.073309356734
 C          0.130899879437       -0.795276283415        0.612986955669
 C          0.170357902061       -0.530787418727       -0.766990132850
 C          0.097785294282        0.807210527810       -1.322644209570
 C         -0.064904316009        1.030981943414       -2.650065387084
 C         -0.130871343585       -0.063935432595       -3.618653797115
 C         -0.052997171124       -1.407985982054       -3.055683327844
 C          0.044857010212       -1.624474497025       -1.677777107901
 O         -0.186856041863       -1.597864900573        3.542188753626
 O         -0.045467963818        0.177049740880       -4.851139112495
