21
Frame 4
 N         -0.075741165095        0.771676704190        3.781665683679
 N         -0.131002372916        1.449548484554        1.625545181002
 H          0.040646033081        0.806552878948        4.786568854228
 H         -0.398851664281        2.861425476082        3.252297163348
 H          0.048413779819       -1.917839008992        0.959944512231
 H          0.282215275451        1.482534125776       -0.504720104825
 H          0.274217033172        2.073601631907       -2.874164162836
 H         -0.322454573957       -2.132230219976       -3.852265371572
 H         -0.089060298488       -2.741723003717       -1.502230331936
 C         -0.251853058306        1.817257983744        2.888077462414
 C          0.046819529831        0.038511726137        1.725974228978
 C          0.151693493527       -0.412352154912        3.080567984427
 C          0.067995109582       -0.848707267650        0.636284655708
 C          0.016542283375       -0.626199605040       -0.728985978106
 C          0.085799827117        0.700428987249       -1.225534765392
 C          0.032148256892        1.061987685381       -2.541505796979
 C          0.030511524106       -0.007138606885       -3.569371777204
 C         -0.136011354057       -1.357653614528       -3.029980744603
 C         -0.155727159803       -1.682838098021       -1.690019928985
 O          0.384099473562       -1.560043584165        3.550985391994
 O          0.099600027389        0.223199479917       -4.769132155571
