21
Frame 4
 N         -0.003449177473        0.632431681405        3.865053911553
 N          0.036105592528        1.504845025721        1.814532618974
 H         -0.323945596875        0.614785327325        4.819678824819
 H         -0.006351296110        2.719083095338        3.588829428299
 H          0.134925840403       -1.750790053254        0.806528181989
 H          0.145261337309        1.679074666706       -0.633652980882
 H         -0.002348848662        1.963861613777       -3.224573236606
 H         -0.173283791414       -2.276156748526       -3.675997340370
 H          0.079319658823       -2.531042077807       -1.136022615925
 C         -0.046090437964        1.795568284149        3.063880867932
 C          0.101183728257        0.107389995443        1.743664889622
 C         -0.084517068650       -0.479027199988        3.032802567332
 C          0.243234779333       -0.670974404105        0.590255495129
 C          0.195063417110       -0.424825250562       -0.800369965590
 C          0.089803718582        0.857277458828       -1.358981918637
 C          0.036073426207        1.020553433571       -2.733415762006
 C         -0.089071448507       -0.115649239278       -3.608401996714
 C         -0.080823451585       -1.450059008278       -3.002193090744
 C          0.073389903032       -1.571209115027       -1.657655910962
 O         -0.108199498345       -1.653638671271        3.379993034851
 O         -0.216280786000        0.028501185832       -4.873955002065
