21
Frame 4
 N         -0.022419627522        0.677095562211        3.883920725663
 N         -0.023823073125        1.403105434915        1.768372222488
 H          0.078928266742        0.716484803833        4.899412619575
 H         -0.257531394341        2.817903372585        3.327479448994
 H         -0.086902280020       -1.822243521863        0.841561923439
 H          0.096040514359        1.684697857078       -0.627358801062
 H          0.024316241449        2.055230491068       -3.164289548195
 H         -0.181707039150       -2.272926065979       -3.708628952628
 H          0.018604041172       -2.607522769684       -1.305755429786
 C         -0.102701330693        1.768138147139        3.028800521430
 C          0.082092084438        0.021593969519        1.769351128735
 C         -0.015449257654       -0.534571295697        3.128907948595
 C          0.099127293049       -0.762975138845        0.631367858843
 C          0.177695933306       -0.447457032846       -0.763035516021
 C          0.143115217825        0.874694726513       -1.347090189557
 C          0.083758686743        1.062553362799       -2.719030536947
 C         -0.042661550640       -0.072129539411       -3.667329055372
 C         -0.070958871401       -1.418735622721       -3.026712225380
 C          0.028446647592       -1.546060974537       -1.663221816891
 O          0.014829701336       -1.672665977506        3.607706374828
 O         -0.042800203465        0.075790211429       -4.894428700751
