21
Frame 4
 N          0.108594058973        0.704028712387        3.919611524092
 N          0.025278090997        1.495729514907        1.836666556608
 H         -0.193243884459        0.566717437049        4.832682921976
 H         -0.281201188752        2.809167768029        3.464486997957
 H          0.180986152646       -1.791832154562        0.873362494769
 H          0.190010140950        1.758989556974       -0.732888041344
 H          0.041655829757        2.033358896809       -3.114973844563
 H         -0.223633273007       -2.296431246113       -3.712408366212
 H         -0.000915405545       -2.619342195802       -1.241097659423
 C         -0.066727983859        1.798534832605        3.103313113506
 C          0.119287006835        0.087350729755        1.735217255109
 C         -0.000865235561       -0.451185951940        3.045930175673
 C          0.181630485531       -0.735351746279        0.600556743999
 C          0.132227550228       -0.508028117293       -0.771378014129
 C          0.106131682488        0.857186747608       -1.337434831023
 C         -0.029739945988        1.039245775062       -2.678079216161
 C         -0.003418862395       -0.119850163646       -3.648087376571
 C         -0.187359934790       -1.472336460916       -3.041301453436
 C         -0.009169394628       -1.607193498403       -1.690669460631
 O         -0.070320236602       -1.638726314721        3.437720226200
 O         -0.019205652818        0.089967878490       -4.881229746397
