21
Frame 4
 N          0.111923823949        0.692143582961        3.865869409329
 N          0.060073363656        1.402337209924        1.680046687999
 H          0.228469936798        0.844566049710        4.834238020446
 H          0.274075963236        2.747781063040        3.291786809934
 H          0.062618563143       -1.857241392649        0.917965593788
 H         -0.438210466352        1.647774809084       -0.622708124750
 H         -0.233493476708        2.039870598212       -3.064532287889
 H          0.181014118883       -2.156994600542       -3.767871026713
 H         -0.014413162493       -2.596037488280       -1.344654350228
 C          0.147329565401        1.696252407954        2.950440305003
 C         -0.115377430297        0.003773830113        1.742950410627
 C         -0.200070611906       -0.482798291894        3.122872113955
 C         -0.052698381662       -0.801830893677        0.666683911575
 C         -0.014803740517       -0.511541952832       -0.721256894546
 C         -0.192084931102        0.809407503594       -1.300375223929
 C         -0.084003600854        1.035412310472       -2.672669844106
 C          0.158197973125       -0.051341528179       -3.626929624690
 C          0.109695096292       -1.361843607935       -3.033670867847
 C         -0.000894194135       -1.586414603268       -1.676134170656
 O         -0.283124676856       -1.623600367275        3.602326746917
 O          0.295776268399        0.110325361468       -4.844377594219
