21
Frame 4
 N          0.141717694245        0.673882619344        3.935145737131
 N         -0.176754356434        1.449498100590        1.809803768891
 H          0.233269268102        0.647611344404        4.957304464650
 H         -0.173353133093        2.812520778824        3.452848401753
 H         -0.220688419208       -1.806945826575        0.848391798483
 H         -0.034007822072        1.759493991473       -0.749192956787
 H          0.199200379080        1.980110210419       -3.201416847430
 H          0.113001808130       -2.325486508822       -3.612082182393
 H         -0.104493122230       -2.563251183900       -1.284705505478
 C         -0.102278041554        1.769693347259        3.052495955624
 C         -0.007249483974        0.057397024980        1.765343851721
 C          0.113412955169       -0.501190369836        3.105661181800
 C         -0.170582450620       -0.735930462192        0.670732586712
 C         -0.170580540749       -0.453628464352       -0.738142508088
 C         -0.009122339505        0.854518675926       -1.386541704091
 C         -0.037112729699        0.995833899236       -2.754520198299
 C          0.052721921582       -0.095817102756       -3.702939613059
 C          0.026434720795       -1.400672014444       -3.060352153814
 C         -0.035203903701       -1.541448238507       -1.678290430257
 O          0.213060162100       -1.700768896636        3.488572726349
 O          0.148607433639        0.124579075567       -4.918116373418
