21
Frame 4
 N          0.234748401986        0.688697351435        3.864915999057
 N         -0.104853647546        1.422661438566        1.735146083888
 H          0.129264110145        0.625033717424        4.883489196460
 H          0.349019039072        2.797741140693        3.272890369435
 H         -0.139962191486       -1.809609129789        0.927030958673
 H         -0.335201016717        1.705618661483       -0.672698868837
 H          0.014089810995        2.014985370280       -3.099579985950
 H          0.472716559990       -2.131643237158       -3.770881241527
 H         -0.018659798083       -2.586348928516       -1.207439786853
 C          0.113795912831        1.751163004381        3.004582762061
 C         -0.159321916141        0.043366134926        1.721279498357
 C          0.024989082195       -0.472738765901        3.064265318029
 C         -0.228544727005       -0.765571075296        0.592557338230
 C         -0.232672369588       -0.493610005535       -0.776016352128
 C         -0.235231337740        0.822812344395       -1.309068832996
 C         -0.128170082289        1.020636730142       -2.650192423050
 C          0.065185913674       -0.109060564140       -3.597574129150
 C          0.183408968912       -1.429327527054       -3.021915615395
 C          0.016260573603       -1.611815454199       -1.664970156475
 O         -0.147291867015       -1.607662681397        3.538783076034
 O          0.126430580208        0.124671475260       -4.834603207865
