21
Frame 4
 N         -0.050191776904        0.714628937202        3.842532516135
 N         -0.096683080978        1.447981204546        1.726529828159
 H         -0.209575185737        0.776466435284        4.854266873392
 H         -0.167320776929        2.806888914368        3.376330740998
 H          0.035100896896       -1.844840161330        1.011380333752
 H          0.286499848164        1.579698332390       -0.572036447231
 H          0.215652371712        2.042960258038       -3.048973012520
 H         -0.031084321139       -2.220735767210       -3.755084860221
 H         -0.029393297945       -2.614554698614       -1.348774539389
 C         -0.111213613620        1.774143634433        2.999861618795
 C          0.049667938011        0.048016123375        1.706238918523
 C          0.038959235284       -0.486229714029        3.097428916141
 C          0.030990742738       -0.792668728237        0.639307236304
 C          0.067437841886       -0.555935631802       -0.778709826264
 C          0.133351874963        0.799599201076       -1.322980394601
 C          0.115642106615        1.018073273247       -2.658321154368
 C         -0.134359796097       -0.040774333661       -3.635084825144
 C         -0.063992393690       -1.386933914674       -3.063161218333
 C         -0.029326808417       -1.614964410699       -1.702689057217
 O          0.237386148347       -1.618732481081        3.535189017065
 O         -0.287547953159        0.167913527378       -4.903250663978
