21
Frame 4
 N         -0.165884599441        0.661463995761        3.915551703352
 N          0.157243927667        1.479153652127        1.886871486446
 H         -0.080602719522        0.554860445116        4.923121724484
 H          0.199121661262        2.744054826535        3.613194403564
 H          0.119380714422       -1.738143348402        0.757676186318
 H         -0.019385884384        1.742636867643       -0.792830076139
 H         -0.046693644956        1.965497028253       -3.248223199475
 H         -0.007010654302       -2.324612463923       -3.620075315227
 H          0.249962072679       -2.499860934729       -1.200137240584
 C          0.039968080975        1.754976047709        3.157188162328
 C          0.011409002262        0.117321197434        1.790030103820
 C         -0.167910924903       -0.482755969363        3.109302453071
 C          0.081502577398       -0.617964924236        0.600459063093
 C          0.127221804921       -0.370922844790       -0.789317354674
 C          0.052568749930        0.874672517243       -1.452189208884
 C          0.019439971886        0.984750543933       -2.803596905738
 C         -0.120309006550       -0.177370489414       -3.682245734532
 C         -0.000958645773       -1.468092739741       -3.030598279766
 C          0.182498272657       -1.534341403353       -1.687857982687
 O         -0.336274469334       -1.688146155516        3.455429229680
 O         -0.295286286892        0.022824151712       -4.901753218451
