21
Frame 4
 N          0.107275606544        0.684757539037        3.871695894109
 N         -0.078462171548        1.469652597187        1.758622685330
 H          0.329064244871        0.643203833426        4.847432555213
 H         -0.111363278900        2.752348292198        3.470809578564
 H         -0.181642075992       -1.757449435207        1.007207773841
 H         -0.152640376335        1.581825412320       -0.624354097786
 H         -0.003182672772        1.966072802437       -3.159078992021
 H          0.216711992149       -2.157049112460       -3.799028826507
 H         -0.207522747583       -2.622693692812       -1.329287702696
 C          0.005753930476        1.773619591359        3.035499300169
 C         -0.067100418228        0.096467890325        1.731947267203
 C         -0.001701726041       -0.481739276091        3.084581521572
 C         -0.092391376236       -0.726940939441        0.601091027911
 C         -0.140651362705       -0.465824413072       -0.775115525443
 C         -0.132683163661        0.814386076583       -1.347027788879
 C          0.004763910967        1.021551337066       -2.703895551050
 C          0.095033947567       -0.090918227330       -3.653443899219
 C          0.048938578379       -1.402002785248       -3.050935322979
 C         -0.068733097467       -1.581478248340       -1.683575878265
 O          0.138397909637       -1.588559695515        3.592487819926
 O          0.292134346877        0.070770453578       -4.875631838995
