21
Frame 4
 N         -0.180562955559        0.672273710296        3.855153947512
 N          0.109195550188        1.497156939398        1.746471289798
 H         -0.270902738453        0.670643597159        4.836971166505
 H          0.022375568779        2.761455840643        3.443456081924
 H          0.310486914440       -1.770926464594        0.949144275341
 H          0.185496157519        1.675162580599       -0.693596146291
 H          0.071478980742        2.035765791480       -3.137583596711
 H         -0.266849695872       -2.234936861145       -3.842188839575
 H          0.093889171072       -2.648999505987       -1.228987885989
 C         -0.071398420387        1.771996906781        3.046585144765
 C          0.007235395254        0.112576370696        1.740770057407
 C         -0.091174151497       -0.497586746201        3.082914220136
 C          0.195258074730       -0.697529164325        0.630581203894
 C          0.132833185731       -0.534467290933       -0.781576805390
 C          0.036482141710        0.803871496362       -1.321288815782
 C         -0.000915377849        1.034065286621       -2.674754185891
 C         -0.078148963044       -0.067184753767       -3.599014505357
 C         -0.069790190136       -1.404303538606       -3.057434559555
 C          0.057117484069       -1.638555310467       -1.688427503692
 O         -0.022385231422       -1.634616371524        3.508792444780
 O         -0.169720900016        0.094137487512       -4.815986987829
