21
Frame 4
 N          0.112036539528        0.723564459161        3.863165890974
 N         -0.258437517548        1.523315054902        1.795387728967
 H          0.111636547792        0.701821143748        4.870709248689
 H         -0.281879278791        2.809989786390        3.515835527052
 H          0.040425513077       -1.800618270716        0.949492811730
 H         -0.046646251310        1.571881957392       -0.554219240870
 H          0.230729780801        2.024805617126       -3.030849077860
 H         -0.129633782624       -2.251667193583       -3.808913224923
 H         -0.331768298233       -2.683559676496       -1.461707714006
 C         -0.169937240447        1.818391795998        3.056648126952
 C         -0.069505692350        0.114014005060        1.703185787101
 C          0.202961353459       -0.446173127049        3.074950360968
 C         -0.071426107018       -0.767729179505        0.604525518530
 C         -0.172416205181       -0.560058869139       -0.805678971004
 C         -0.039625322852        0.809071328029       -1.306238920673
 C          0.099934322644        1.008231695616       -2.640762115778
 C          0.115403692912       -0.084974546551       -3.634625978177
 C         -0.074589158279       -1.427820941788       -3.089016588882
 C         -0.234679199457       -1.622635435999       -1.755749019422
 O          0.536428658190       -1.547606936482        3.510273698161
 O          0.430987645685        0.087757333885       -4.856413847530
