21
Frame 4
 N          0.049833425601        0.672716024735        3.927707842310
 N         -0.302787743105        1.424698543150        1.859854361483
 H          0.418128710421        0.650472637534        4.887012434648
 H         -0.125089394219        2.843027275385        3.390258210018
 H          0.059880041138       -1.804197919163        0.928900529033
 H         -0.302571427131        1.646957401551       -0.720665174893
 H          0.155143827488        2.019441827084       -3.210013445689
 H         -0.027354431091       -2.218574402731       -3.792934965211
 H         -0.376211292884       -2.588901229029       -1.307296786126
 C         -0.134430007906        1.790207998746        3.092081180572
 C         -0.105456144282        0.034912254409        1.783727085386
 C          0.126466171440       -0.473124590724        3.134184062323
 C         -0.098460277676       -0.783945589418        0.650315518619
 C         -0.080409813605       -0.500855769945       -0.775239508050
 C         -0.135150690586        0.815759636423       -1.397848095206
 C          0.040673142975        1.035582430966       -2.734192182163
 C          0.261124739713       -0.087935492173       -3.655777017698
 C         -0.067479377816       -1.385880277767       -3.063853293203
 C         -0.151578342197       -1.557656757278       -1.691259417940
 O          0.306055991233       -1.613974443328        3.568562781425
 O          0.489672892490        0.081270441572       -4.873524119638
