21
Frame 4
 N          0.112926122415        0.762048092573        3.848375099115
 N         -0.071314245275        1.337496310241        1.701468699686
 H          0.399749547113        0.789511909733        4.841113930320
 H          0.164265543032        2.834268586241        3.161114520407
 H         -0.188871044151       -1.892308399202        0.873034493468
 H         -0.305249259127        1.554905385241       -0.566995140275
 H         -0.170008740523        2.052389943052       -3.021539401487
 H          0.256108128774       -2.165212768168       -3.786531129171
 H         -0.051943209034       -2.641450808131       -1.379775108185
 C          0.127744640811        1.782407679871        2.913703341976
 C         -0.227390437233       -0.044952917006        1.758149106442
 C         -0.097047525443       -0.452766033380        3.149421178056
 C         -0.176070686549       -0.861895306916        0.622225525123
 C         -0.100058408142       -0.544810412775       -0.778225473860
 C         -0.131207949790        0.788128143021       -1.284433330130
 C         -0.035241266885        1.055066902730       -2.620446323076
 C          0.134230195545       -0.004412138081       -3.571579838655
 C          0.268414077255       -1.373054980570       -3.019281138193
 C          0.040493540244       -1.631850513120       -1.667740619081
 O         -0.124450300895       -1.580494658373        3.665038824669
 O          0.174921277857        0.236985983022       -4.837097217149
