21
Frame 4
 N         -0.256415610321        0.699311637362        3.833829584788
 N          0.020389002484        1.437344759482        1.760461022425
 H         -0.126700657362        0.689755829353        4.868443191023
 H         -0.246362231799        2.801964093007        3.344576023214
 H          0.274402576268       -1.871791831774        0.894463125427
 H          0.200340985409        1.627753775286       -0.671182013234
 H         -0.008348730317        2.027814579506       -3.085146154760
 H         -0.393452684941       -2.143549080618       -3.746114932146
 H         -0.056390860592       -2.623081204617       -1.292014952637
 C         -0.147402677875        1.806325708848        3.010573198183
 C          0.147320402155        0.015731541974        1.756811710328
 C          0.026050577845       -0.468867087099        3.123457103400
 C          0.221458926126       -0.808216133183        0.624161077963
 C          0.163204726004       -0.520204515145       -0.788180742095
 C          0.257582507163        0.801076915570       -1.339905233348
 C          0.114078619045        0.997307129118       -2.697976066422
 C          0.048695914238       -0.048177486199       -3.641914667585
 C         -0.121762267225       -1.367252176391       -3.043910497300
 C         -0.097844120513       -1.593654033718       -1.700929458559
 O          0.085653373849       -1.593895118829        3.671709260045
 O         -0.104497769638        0.134302698067       -4.881210578711
