21
Frame 4
 N         -0.148969130259        0.678016696050        3.926879372591
 N         -0.176208465143        1.425563588540        1.820701525894
 H         -0.147677922632        0.654259626022        4.919149815368
 H         -0.383231057564        2.780853092591        3.417233421666
 H          0.349713083768       -1.764426794266        0.972134084675
 H          0.363557844143        1.698685064900       -0.762677318003
 H          0.278866032807        2.034687905363       -3.130340506769
 H         -0.519926510536       -2.234586908924       -3.688781967718
 H         -0.090270181568       -2.589682405334       -1.274283815642
 C         -0.286060515506        1.759612303462        3.051452947352
 C          0.117503077178        0.057098766706        1.791321667094
 C          0.058493390736       -0.510509758345        3.133956242881
 C          0.291138770023       -0.734707471184        0.604329694548
 C          0.282263111112       -0.456631417976       -0.822129850787
 C          0.272264694002        0.846519969718       -1.412846576749
 C          0.229048288984        0.983798463724       -2.758628200900
 C         -0.083080661622       -0.096375766340       -3.730055764041
 C         -0.194534870586       -1.373954300269       -3.019096658781
 C          0.103025646934       -1.564217359503       -1.693093807041
 O          0.060382364107       -1.672225214162        3.590298270370
 O         -0.376296988377        0.078221919227       -4.935522576008
