21
Frame 4
 N          0.016149944893        0.669753995336        3.927026154926
 N          0.008110598971        1.523494976416        1.875021344671
 H         -0.106893621489        0.567055823690        4.904235825350
 H          0.310162404054        2.749702689632        3.549780494182
 H          0.020186108609       -1.725029592176        0.884009077069
 H         -0.214550348352        1.728636477453       -0.735732824830
 H         -0.138964719984        1.953336000512       -3.122596048459
 H          0.112460250630       -2.260434386474       -3.723150172641
 H          0.037545216253       -2.542941819338       -1.324597181886
 C          0.052576626766        1.775368252562        3.155665036354
 C         -0.057893158181        0.139686203956        1.708986957283
 C         -0.030339313628       -0.451503673269        3.109241435848
 C          0.010673126768       -0.697182530956        0.586267537830
 C         -0.037375795714       -0.463491207355       -0.818161719015
 C         -0.074371634935        0.844757293782       -1.401480367004
 C         -0.079689794296        0.964694443923       -2.736717209966
 C          0.034028626216       -0.139973655280       -3.696297956821
 C          0.016532249518       -1.432742916629       -3.047040610234
 C         -0.016894553268       -1.582882789429       -1.720948315351
 O         -0.056048342876       -1.621930303705        3.532348787534
 O          0.194596130046        0.001626717351       -4.905860244840
