21
Frame 4
 N         -0.156205169374        0.692141878896        3.881844819381
 N         -0.030076457434        1.441735514490        1.739090498519
 H          0.022453508606        0.578980589608        4.858949630265
 H         -0.241231740209        2.834883534631        3.279701768078
 H          0.060230776019       -1.821142402110        0.980330849716
 H          0.130939395511        1.671617328811       -0.623705349719
 H          0.055400292066        1.988455261370       -3.172802248927
 H         -0.184105244929       -2.230564604936       -3.737705226536
 H         -0.254441919683       -2.554869581302       -1.203907444787
 C         -0.132444442465        1.781776128300        2.979276718791
 C          0.062899284589        0.060338374204        1.726715305918
 C          0.127234039902       -0.491343665901        3.063192078553
 C          0.030378838634       -0.768016550019        0.602329976617
 C         -0.078507434263       -0.514771622753       -0.759625931178
 C          0.023107821268        0.780740695075       -1.305689573414
 C          0.094340330087        1.032659047781       -2.661024478411
 C          0.104797746881       -0.063547201124       -3.627616637166
 C          0.019734622941       -1.383794246104       -3.064104392107
 C         -0.095148838649       -1.592588372488       -1.683969395508
 O          0.331251183841       -1.629891256807        3.563709886322
 O          0.109393406662        0.187201150376       -4.834990854409
