21
Frame 4
 N         -0.215046667900        0.736763114309        3.892240150621
 N          0.140618615744        1.394224775671        1.782114617135
 H         -0.208216405955        0.780184155684        4.889346580785
 H          0.068468294466        2.780716851245        3.389752759765
 H          0.117569837688       -1.870259328812        0.788608264208
 H          0.039885095942        1.732084399224       -0.697522512193
 H         -0.056586891911        2.008910697553       -3.126472540615
 H         -0.178828837805       -2.227590710184       -3.818227173256
 H          0.156685356436       -2.681706538387       -1.325410313696
 C          0.000564302708        1.773477921325        2.994236037396
 C          0.056587437286       -0.024050779627        1.742548615295
 C         -0.117489695461       -0.497896641927        3.159585470456
 C          0.152139848221       -0.784769384350        0.610384275917
 C          0.207027091530       -0.492396579105       -0.760519668299
 C          0.171662626787        0.878428141114       -1.359453949334
 C         -0.004444966282        1.034099637792       -2.688174712350
 C         -0.104902117624       -0.064957552942       -3.598560795856
 C         -0.053968874594       -1.401234891553       -3.057973340347
 C          0.082036868931       -1.599142161895       -1.708637398555
 O         -0.090392486983       -1.617042721838        3.730353722423
 O         -0.163368431222        0.142157596703       -4.838218089499
