21
Frame 4
 N          0.013599810030        0.712812348319        3.859265230971
 N          0.001183888020        1.438235556672        1.710124713201
 H          0.045657137323        0.709221705412        4.896473038590
 H          0.265263070101        2.826113309180        3.277323751034
 H         -0.233142303049       -1.817975094577        0.931638312274
 H         -0.032415768097        1.630643975589       -0.584074939857
 H         -0.068042776545        2.000085936850       -3.079707085560
 H          0.375138815306       -2.253344105147       -3.727061755616
 H          0.068483827788       -2.622869882524       -1.340792809020
 C          0.074768674946        1.797824386653        2.990433032253
 C         -0.076227791676        0.000638167343        1.729381849306
 C         -0.141369213194       -0.472827814519        3.098743652263
 C         -0.134883704601       -0.777428301215        0.617424774377
 C         -0.056223541585       -0.517332772451       -0.765478047194
 C         -0.057341766468        0.831132573435       -1.270493364137
 C         -0.100012407324        1.000876226311       -2.638680095608
 C         -0.029319029170       -0.054674537829       -3.645458037193
 C          0.148712429193       -1.375470337394       -3.066220762849
 C          0.049474137716       -1.582209542597       -1.687577127869
 O         -0.011409030223       -1.654420642881        3.541610055081
 O         -0.101894458492        0.180968845371       -4.846874384448
