21
Frame 4
 N          0.160059297166        0.675989669440        3.804109248409
 N         -0.160186333201        1.447236340184        1.746285253905
 H          0.331088326897        0.701308646809        4.809495448263
 H          0.184743525340        2.761551467629        3.407230948623
 H         -0.092955030956       -1.839214769282        0.879000462184
 H         -0.188436911937        1.730325338210       -0.682891503073
 H          0.078851393763        2.029297820757       -3.094320534954
 H          0.421140663244       -2.220824994602       -3.678650965266
 H         -0.138172836157       -2.574408443727       -1.253471989567
 C         -0.018683194077        1.794025952159        3.001622160201
 C         -0.220367527577        0.016721070916        1.730991703916
 C         -0.048462151138       -0.503862156773        3.069378829834
 C         -0.182002934662       -0.771729021791        0.622117317414
 C         -0.174740900955       -0.468133645063       -0.775009119442
 C         -0.215575729103        0.867930281636       -1.332012750833
 C          0.018048129046        0.997485309455       -2.662339578638
 C          0.118768515397       -0.124405712341       -3.590779692848
 C          0.193038807107       -1.425551243855       -3.046350167290
 C         -0.020322434412       -1.546807924296       -1.703016388327
 O         -0.020129601536       -1.654671873136        3.560068371135
 O         -0.025703072248        0.107737887670       -4.811457053646
