21
Frame 4
 N          0.148012867601        0.651810960831        3.874304013984
 N         -0.025726589883        1.481052326854        1.804895254051
 H          0.297564047934        0.653831887583        4.881015748209
 H          0.151781563510        2.775924046645        3.451548987252
 H         -0.190162497854       -1.791998688608        0.808697837306
 H         -0.366945479858        1.696773114172       -0.668175001705
 H          0.005230874153        2.033697161787       -3.192998976311
 H          0.391405341756       -2.274211818162       -3.532968134615
 H         -0.068396696381       -2.573538343398       -1.222853818949
 C          0.053933183240        1.774267069294        3.071091293960
 C         -0.085010818159        0.080435231043        1.726729768210
 C         -0.034280684388       -0.517971006323        3.059480341875
 C         -0.176194851580       -0.741079146991        0.585021688551
 C         -0.227308233646       -0.487657478018       -0.817531897954
 C         -0.229533179095        0.857086803370       -1.396215926263
 C         -0.008648485562        1.050549782262       -2.711103577280
 C          0.165266745040       -0.062588918691       -3.655600308852
 C          0.138771318953       -1.383686540511       -2.975425779126
 C         -0.089890174782       -1.563009682750       -1.642887025650
 O         -0.014355401087       -1.687484263445        3.459834439091
 O          0.164487150086        0.027797503052       -4.906858925783
