21
Frame 4
 N         -0.345013638302        0.697380966983        3.783169562034
 N          0.261766266590        1.481409514936        1.743162833764
 H         -0.440689335510        0.738713910641        4.807067783623
 H         -0.190881232714        2.757900491336        3.358484900153
 H          0.156592702745       -1.838207521992        0.805342330664
 H          0.483646931966        1.599141879965       -0.586339389558
 H          0.055618892638        2.023777377067       -3.054887639365
 H         -0.346830099976       -2.240277684642       -3.710467186779
 H          0.274451823458       -2.643812450922       -1.383231985677
 C         -0.045705229802        1.767258574001        2.970300926938
 C          0.194838970883        0.054622479298        1.744421405030
 C         -0.106141320527       -0.439665897926        3.064065906625
 C          0.206841257899       -0.765338005125        0.629029056930
 C          0.365802661453       -0.523191626191       -0.744782072632
 C          0.239895508462        0.800244817591       -1.276245491062
 C          0.006349993249        1.011979292387       -2.609424777167
 C         -0.247372764765       -0.078331465363       -3.575184868339
 C         -0.185509354971       -1.416644689524       -3.017398869251
 C          0.135704145859       -1.606679535267       -1.680151826886
 O         -0.018993187157       -1.573797633461        3.529775127370
 O         -0.454372991479        0.193517206209       -4.796705726415
