21
Frame 4
 N          0.190154410806        0.718567191840        3.838477316786
 N          0.062563207627        1.441644190727        1.681978353923
 H         -0.145076021153        0.659181008977        4.800361597535
 H         -0.036600308203        2.821165343854        3.342849369214
 H          0.051046264843       -1.819321899138        0.869844753712
 H         -0.107299500692        1.633590112835       -0.658758426561
 H          0.106018044019        2.047922689641       -2.975262269760
 H          0.133246607760       -2.246277182154       -3.712931832550
 H         -0.034000574578       -2.550901054569       -1.235618199585
 C         -0.070078439416        1.791533642190        2.921178250225
 C          0.093825246541        0.009661413287        1.718798970984
 C          0.073750060760       -0.516262400714        3.106827537890
 C          0.007640886537       -0.770644009153        0.602813139621
 C         -0.118196892534       -0.480109383201       -0.779610677528
 C         -0.058432855956        0.797894736780       -1.317034662680
 C          0.001785564261        1.024735952032       -2.627905519067
 C          0.000711906232       -0.071251946140       -3.619976940348
 C         -0.030544372651       -1.405356385602       -3.025349418549
 C         -0.130587344815       -1.579060279635       -1.667716106927
 O         -0.028906510868       -1.655760066762        3.610025365374
 O          0.038980621479        0.149048324903       -4.872990601707
