21
Frame 4
 N          0.025565111479        0.681585995638        3.893992361375
 N          0.067081149950        1.422231121459        1.775923389298
 H          0.078992607975        0.712195855640        4.870297295748
 H          0.177012024611        2.769867085525        3.414702185393
 H         -0.227290953784       -1.816996654349        0.829050202698
 H         -0.124134366800        1.714386524761       -0.697474745597
 H         -0.043207762115        2.030362145630       -3.153828784964
 H          0.304884340028       -2.224042970131       -3.632055576663
 H          0.034645331935       -2.602212690071       -1.267267757210
 C          0.119894141319        1.752187740173        3.039771536111
 C         -0.061934594106        0.032444364939        1.754562407240
 C         -0.045768572736       -0.521231116891        3.104482854233
 C         -0.246340447180       -0.732808276692        0.610887786739
 C         -0.094019298260       -0.437503868843       -0.774465853555
 C         -0.193090598920        0.856835332612       -1.393955249790
 C         -0.111294545910        1.015756118068       -2.739439392905
 C          0.074017142526       -0.080523110044       -3.651309317220
 C          0.148046486464       -1.376523542038       -3.007604436274
 C          0.032240662281       -1.579816742589       -1.677519625528
 O          0.032734480927       -1.682643852171        3.609230140876
 O          0.051967660317        0.066450539374       -4.907979420006
