21
Frame 4
 N         -0.020780462869        0.671375033118        3.881048112552
 N          0.054574680672        1.455334845684        1.768623246718
 H          0.015932509648        0.659067915660        4.872642627908
 H          0.284442108575        2.792145691890        3.366909170126
 H         -0.189578298921       -1.857503736258        0.958922245177
 H         -0.128885003047        1.709651801984       -0.722189006314
 H         -0.138734262244        2.058472163226       -3.134698459411
 H          0.160590953311       -2.217844789849       -3.714807156467
 H          0.252225055812       -2.614626022165       -1.299831325603
 C          0.040857996728        1.756739421543        3.055299357730
 C          0.025448352235        0.022305484119        1.724392300092
 C         -0.092222076585       -0.458929534763        3.052248873711
 C         -0.017548959838       -0.802464368821        0.630516038170
 C         -0.058704815210       -0.475873562374       -0.749663057625
 C         -0.098734014649        0.858190532115       -1.322990882937
 C         -0.009320371243        1.053023243158       -2.674483375775
 C         -0.003772855151       -0.071397539557       -3.631091520440
 C          0.033075996898       -1.378128321725       -3.017761707230
 C          0.088680991042       -1.574868504800       -1.675504615560
 O         -0.185280207192       -1.611672336173        3.516457626095
 O         -0.012267317972        0.027002583991       -4.884038490918
