21
Frame 4
 N         -0.057344125792        0.731467878242        3.870841035967
 N          0.109932995219        1.397232638108        1.747311626769
 H          0.062287982565        0.758615312109        4.880685055099
 H          0.351457481442        2.781393207562        3.224173227202
 H         -0.102212445525       -1.840245065140        0.962395768242
 H         -0.209888981524        1.655885393095       -0.585583471366
 H         -0.235299208851        2.015785131466       -3.074542988088
 H          0.295897044824       -2.247502524574       -3.746705081887
 H          0.123120491019       -2.644712193928       -1.380731929412
 C          0.141799280284        1.767271260097        2.965763570003
 C          0.017442054811        0.039253309158        1.721838392114
 C         -0.046551151108       -0.490487434727        3.081609031839
 C         -0.107315944643       -0.807914961561        0.665965936131
 C         -0.138673824410       -0.521569700475       -0.746383498324
 C         -0.143019194018        0.814156586073       -1.271317715436
 C         -0.147107867943        1.007495256260       -2.618846138455
 C          0.043718472963       -0.028707380899       -3.635444224353
 C          0.127055384621       -1.374669522348       -3.071702149139
 C          0.027696991394       -1.602323264107       -1.691814153965
 O         -0.259852452898       -1.612432947171        3.568559714480
 O          0.146857017570        0.202009022762       -4.866072007421
