21
Frame 4
 N          0.187658009541        0.614995816050        3.905896253246
 N         -0.159699757755        1.529483437715        1.860360623819
 H          0.010579863509        0.559352579506        4.888795821587
 H         -0.124354697859        2.679817356992        3.578000924181
 H         -0.053472238229       -1.678095934251        0.895637572613
 H         -0.058861536736        1.727908957893       -0.718040044251
 H          0.161898760753        1.955889954480       -3.298831397690
 H         -0.039194942002       -2.306207573982       -3.679437311877
 H         -0.060793822518       -2.548510832508       -1.178635274369
 C         -0.088793944312        1.752515339906        3.116661240398
 C         -0.088072978355        0.141366183569        1.745741142613
 C          0.096203584929       -0.504646720263        3.069156238762
 C         -0.043712585721       -0.644543118552        0.617707210194
 C         -0.067150367156       -0.413618497736       -0.792614232564
 C         -0.040307444539        0.870930782431       -1.414995116425
 C          0.092234261105        0.982822812319       -2.775843634491
 C          0.116906256841       -0.148279463010       -3.687393045962
 C         -0.029500842645       -1.443299655984       -3.042446864268
 C         -0.082874646637       -1.540926240208       -1.664134382845
 O          0.203796393560       -1.652506578073        3.517753013807
 O          0.067512674225        0.065551393706       -4.943338736478
