21
Frame 4
 N          0.216056975018        0.640678445267        3.875251089433
 N         -0.006706860917        1.416412267424        1.751826664147
 H          0.023305633807        0.733413553947        4.838160384246
 H          0.185826984387        2.749294529291        3.364404282783
 H         -0.218071886130       -1.798554250725        0.861947715835
 H         -0.226035242468        1.738654046662       -0.650762631426
 H         -0.276525620498        1.972688662130       -3.171733512229
 H          0.234003594405       -2.345324771706       -3.659330905612
 H          0.015747571703       -2.494255775843       -1.250378302309
 C          0.185641503023        1.723607719663        3.014009349076
 C         -0.103375835599        0.017517863001        1.718659855291
 C         -0.024002622835       -0.519403147367        3.092114155318
 C         -0.081826547540       -0.737932717624        0.606799180062
 C         -0.005338270795       -0.435366063234       -0.732894144990
 C         -0.101950737584        0.858685023141       -1.307950654306
 C         -0.074574719510        1.023207745299       -2.662774546934
 C          0.138944693155       -0.089518913306       -3.640189992360
 C          0.182116940885       -1.400313424102       -2.991158608584
 C         -0.011836608374       -1.514624754403       -1.666208461755
 O         -0.185378042646       -1.661461556042        3.496335635938
 O          0.133979098511        0.122595518526       -4.886126551623
