21
Frame 4
 N          0.018458050296        0.701119585937        3.868290781255
 N          0.177392208942        1.440857609968        1.747755416848
 H         -0.367348948201        0.708222355328        4.795104490086
 H          0.057324173727        2.784351591605        3.326706173478
 H          0.152596652332       -1.876093729090        0.881689573029
 H          0.126622933958        1.667477796590       -0.511471232394
 H         -0.103077787516        2.012094419442       -3.105221759046
 H         -0.094964342091       -2.269302773048       -3.823150036073
 H          0.123940595071       -2.591509846119       -1.308971706364
 C         -0.046380432699        1.776864746494        2.970361955386
 C          0.097768493713        0.017639518237        1.749457883357
 C         -0.103595808681       -0.470361661674        3.082628733291
 C          0.146591274244       -0.780779237571        0.636042643767
 C          0.149778261143       -0.470858584754       -0.760746037912
 C          0.171263294896        0.886777098089       -1.286613266969
 C         -0.018571586605        1.066737337346       -2.610221599764
 C         -0.085758141255       -0.110470038119       -3.641405425637
 C         -0.010651214950       -1.433340048422       -3.028073991267
 C          0.052593640692       -1.583622542367       -1.692911005454
 O         -0.185172537776       -1.599448224049        3.590902128784
 O         -0.258808779241        0.123644626177       -4.880153718403
