21
Frame 4
 N          0.050999378902        0.570633039193        3.969920611601
 N         -0.108591577586        1.504842739839        1.912306547404
 H         -0.015992338330        0.614571405611        4.984828406727
 H          0.116428875662        2.711462670879        3.618849759345
 H          0.111622135538       -1.591165094417        0.882862328811
 H         -0.177417966800        1.762650992029       -0.842161651070
 H          0.103866375488        1.897223929182       -3.286111061482
 H         -0.167723826692       -2.267543588447       -3.593465308771
 H          0.097524062267       -2.516120746533       -1.246666563540
 C          0.009243664099        1.744603889868        3.160157133952
 C         -0.128562000409        0.105369865969        1.775449147502
 C         -0.010630931807       -0.547609895994        3.063114449062
 C         -0.045957244936       -0.577095922992        0.573480722239
 C          0.026517268440       -0.363156356534       -0.796605166601
 C         -0.089447243484        0.891082648147       -1.476895490288
 C         -0.073377254511        0.959439358435       -2.829171029579
 C          0.031679890596       -0.150611196265       -3.725963637712
 C         -0.082474441894       -1.425454327695       -3.000563826386
 C          0.071175970324       -1.521493939639       -1.670251820943
 O          0.036542516539       -1.748046149544        3.458039999275
 O          0.244574688594       -0.053583321091       -4.931153549547
