21
Frame 4
 N         -0.030659319971        0.663725032526        3.850464408620
 N          0.148007890101        1.377981060046        1.694358106398
 H         -0.069435880010        0.674065106104        4.863331901340
 H          0.260520159368        2.765714803729        3.369474668188
 H         -0.035338291799       -1.818566631982        0.850406892007
 H         -0.129100184414        1.752949820814       -0.661780258543
 H          0.011972144455        2.094060533137       -3.048287482051
 H          0.184890024656       -2.316088482539       -3.669171766595
 H          0.339485378262       -2.465400101160       -1.174362616553
 C          0.116287736188        1.751055697811        2.976804838944
 C          0.056248402887       -0.005475890470        1.770022966849
 C         -0.105278873462       -0.536700975243        3.129423197773
 C         -0.090225768878       -0.757841899512        0.601460581289
 C         -0.111620744543       -0.432200908229       -0.773740141892
 C         -0.150404493435        0.855531086083       -1.348119130916
 C         -0.056072775598        1.043173898785       -2.734391627552
 C         -0.109493135337       -0.075097794053       -3.690285874732
 C          0.038152435045       -1.379847645711       -3.027660672218
 C          0.085860605524       -1.558892857279       -1.682611664002
 O         -0.264800932082       -1.651017718571        3.647187677660
 O         -0.088994376958        0.018873865714       -4.942524004015
