21
Frame 4
 N         -0.082234913871        0.717521074961        3.823985358942
 N          0.146512702731        1.394990022607        1.743609460203
 H          0.041935228539        0.664822335907        4.822791924485
 H          0.344096742580        2.778477345088        3.393892832847
 H         -0.269774826447       -1.798441571770        0.781769363552
 H         -0.103441964373        1.654351222384       -0.621197376387
 H         -0.220228817850        2.056695122701       -3.119480604009
 H          0.334818413164       -2.263802894620       -3.644974919330
 H          0.221714985099       -2.641030849174       -1.254666528366
 C          0.168013488274        1.797789198723        2.983361167265
 C         -0.024835523068        0.019814344904        1.720912154040
 C         -0.171993977512       -0.499727420343        3.053974200661
 C         -0.037867146390       -0.756247057761        0.604961193304
 C         -0.077365495725       -0.499578382300       -0.761243562379
 C         -0.111767138849        0.840664533754       -1.331170020732
 C         -0.105048756269        1.070049019024       -2.652863835445
 C         -0.055140178502       -0.041036703069       -3.589362106238
 C          0.188699091222       -1.377854677195       -3.012487559024
 C          0.085615641217       -1.588166237593       -1.674505152982
 O         -0.209386556037       -1.610296722605        3.576187585544
 O         -0.062320997933        0.081008296377       -4.843493575952
