21
Frame 4
 N         -0.049191034403        0.653877512550        3.909479095780
 N         -0.045113041545        1.492524467031        1.763299968776
 H         -0.175159771528        0.707717217529        4.910550227631
 H         -0.324506659156        2.763826504319        3.488827744251
 H          0.001485791388       -1.780672494048        0.864887334698
 H          0.230778375399        1.662923744498       -0.654622485093
 H          0.252540337064        1.968369452627       -3.175281054250
 H         -0.187972821974       -2.245212350232       -3.775872390442
 H         -0.124141580405       -2.558755936316       -1.233390540288
 C         -0.190005428201        1.762972669743        3.053372177045
 C          0.108989826327        0.081523573498        1.767114676386
 C          0.115883866170       -0.496495110203        3.135603886132
 C          0.095160803166       -0.708537506712        0.625153133980
 C         -0.041702558319       -0.473675756654       -0.768755191115
 C          0.143865989665        0.820951681744       -1.366991537956
 C          0.105344859498        1.008170639920       -2.735590917557
 C         -0.052197477519       -0.093163751675       -3.672708340849
 C         -0.092080486464       -1.408105284433       -3.052684170961
 C         -0.085957523798       -1.588084632972       -1.707310969294
 O          0.391525514417       -1.661813974761        3.544349555478
 O         -0.077546979783        0.091659334548       -4.919430202352
