21
Frame 4
 N          0.001359147398        0.751633838678        3.847984927108
 N          0.055699231801        1.422543728895        1.733342513128
 H         -0.142572419404        0.762233533058        4.847191846920
 H         -0.072278546672        2.811970418424        3.320156692737
 H          0.111913597909       -1.916992124241        0.782905536749
 H          0.160355748789        1.593570393043       -0.557169658889
 H          0.019097225706        2.081121492594       -2.975325762720
 H         -0.051367325456       -2.191077367508       -3.782531051588
 H          0.062136709292       -2.636171600345       -1.249570016113
 C         -0.081585704063        1.817950057627        2.967899242299
 C          0.044186077655       -0.001827723538        1.725474020845
 C         -0.041121890850       -0.455438031318        3.083301748649
 C          0.011073829572       -0.845893712750        0.608218488061
 C          0.022240679031       -0.526954370403       -0.746337040444
 C          0.083108851231        0.823923687565       -1.313662215163
 C          0.070157782755        1.043812550931       -2.660607728785
 C         -0.045475513323       -0.054715739033       -3.614213015600
 C         -0.087129926899       -1.398128900418       -3.055807786141
 C          0.014749445149       -1.623849984657       -1.695872742804
 O          0.003832261114       -1.595220599023        3.598970830248
 O         -0.138379260734        0.137510452420       -4.864348828498
