21
Frame 4
 N          0.070858349636        0.780447979393        3.892037970816
 N         -0.148363776465        1.461403350697        1.757484253472
 H          0.085658436677        0.779049910753        4.896244672637
 H         -0.278385313089        2.808864212351        3.406624078045
 H         -0.135627218233       -1.839026644065        0.923910476918
 H          0.146330514907        1.594347894844       -0.557294037982
 H          0.211201423753        2.070192957271       -2.960509449644
 H         -0.140017109055       -2.286194916238       -3.755629653793
 H         -0.067655523699       -2.672508643418       -1.390145374067
 C         -0.191216212299        1.794095057263        3.017891052388
 C         -0.038745619707        0.052356941546        1.745367915679
 C          0.133053013305       -0.480128688299        3.113618537494
 C         -0.081009027608       -0.804211136516        0.605067424931
 C         -0.119213595958       -0.541124321118       -0.799385734280
 C          0.054920403725        0.803481638883       -1.340790182404
 C          0.099346488173        1.001374065530       -2.689949680748
 C         -0.011167634082       -0.048042698187       -3.657931792297
 C         -0.044557874426       -1.388737586133       -3.106953715980
 C         -0.037573691759       -1.604118557067       -1.764270799403
 O          0.375884067237       -1.618220393211        3.560552057890
 O          0.116279898967        0.136699575722       -4.895938019671
