21
Frame 4
 N         -0.005266081380        0.704883121854        3.833392324305
 N         -0.206610822756        1.458590575787        1.713529124975
 H          0.129520059590        0.627559867794        4.855329995142
 H         -0.022352487276        2.821249249980        3.293366823755
 H         -0.068661548532       -1.861037286525        0.943833858557
 H          0.073729207405        1.652646529204       -0.622483915785
 H          0.150586967131        2.049499746404       -3.090035053977
 H         -0.028994515843       -2.299029735690       -3.698358334629
 H         -0.032411900003       -2.607352395273       -1.319478044730
 C         -0.135315674356        1.785933480767        2.994736025358
 C         -0.087536028677        0.043849625072        1.671443308276
 C          0.039396826349       -0.449913001243        3.100556180943
 C         -0.038602822307       -0.829988068929        0.615456194195
 C         -0.057656024505       -0.548220665548       -0.752014611624
 C          0.003819063072        0.827930611301       -1.275258740817
 C          0.002016106333        1.042136169518       -2.651685372158
 C          0.012478973759       -0.041588420594       -3.588834085710
 C          0.013265305642       -1.368224836918       -3.018532398463
 C         -0.024193594844       -1.577204273167       -1.693902845604
 O          0.214507860452       -1.599858283408        3.533729650107
 O          0.068281130746        0.168137989613       -4.844790082116
