21
Frame 4
 N          0.088732568173        0.641058856922        3.911222149053
 N         -0.006881453331        1.437524002607        1.824862382391
 H         -0.240606093568        0.550759025901        4.874416948888
 H         -0.049899855667        2.723993658987        3.454926412112
 H         -0.051531548135       -1.736956860565        0.949817128723
 H          0.039695711299        1.752035919590       -0.743219764972
 H          0.137835731495        2.049523728520       -3.236252765193
 H         -0.032774191758       -2.318755164766       -3.642035556406
 H          0.118171371549       -2.504348153146       -1.173285997054
 C          0.071717905161        1.746947699906        3.071790639889
 C         -0.011877369754        0.044919604902        1.758287189723
 C          0.028903314869       -0.518013125536        3.125299677757
 C          0.027998135557       -0.674336455008        0.597411185344
 C         -0.036017075973       -0.386487010321       -0.809621585509
 C         -0.024465888455        0.893384107859       -1.431481367381
 C         -0.001684079427        1.031270103714       -2.770855492529
 C          0.020391001461       -0.139981891840       -3.710572542851
 C          0.012927937583       -1.419034712219       -3.044315786984
 C         -0.020197416997       -1.521778768215       -1.647154375824
 O          0.071560134657       -1.671498530775        3.575417783929
 O         -0.141998838739        0.019773963485       -4.934656263108
