21
Frame 4
 N          0.066477851793        0.674821008676        3.881007874525
 N         -0.138579999118        1.451257871162        1.758240444839
 H          0.346303778263        0.660715479240        4.857004535125
 H         -0.131859987276        2.764068637552        3.462737335759
 H         -0.090901029171       -1.828446888620        0.851605488846
 H         -0.147527731562        1.737502475204       -0.746252685547
 H          0.028589998581        2.011429448242       -3.157762209081
 H          0.052667668060       -2.252074518440       -3.759292182812
 H         -0.173837605301       -2.581931187028       -1.176362685330
 C         -0.070627120737        1.774483904836        3.023977600946
 C         -0.070832238768        0.043452059230        1.762824724968
 C          0.066143697543       -0.507165886693        3.085704991025
 C         -0.133457059268       -0.748781326547        0.633374284602
 C         -0.137545228836       -0.449941737561       -0.730159212112
 C         -0.100103152137        0.875597707640       -1.374697971395
 C         -0.019502241143        1.032382583544       -2.723950517006
 C          0.135788518589       -0.088308081471       -3.659373319519
 C         -0.067915121826       -1.445862509904       -3.034995667947
 C         -0.139972507086       -1.550617940746       -1.640109480998
 O          0.241267384114       -1.662536114280        3.544493978412
 O          0.485422125287        0.089955015966       -4.858015327301
