21
Frame 4
 N         -0.046286171114        0.687782172914        3.838755002638
 N          0.328479236256        1.467446348118        1.775619436375
 H         -0.090307630322        0.697007008762        4.830208411814
 H          0.369466343228        2.770787345684        3.428253461228
 H          0.016134656822       -1.864280733657        0.777498140807
 H         -0.222331422487        1.670745120031       -0.650102812269
 H         -0.403782301015        2.002988461889       -2.991383310589
 H          0.138012632105       -2.277278946077       -3.716107520457
 H          0.200435283385       -2.555805498136       -1.234799496599
 C          0.180695029870        1.795222555655        3.012369896534
 C          0.019986177820        0.062272008401        1.698620007778
 C         -0.185396793058       -0.449244363687        3.065368546753
 C          0.055349585753       -0.775995423782        0.610701858415
 C          0.018453805738       -0.512280478396       -0.773188730931
 C         -0.166217272994        0.802153997215       -1.314849827228
 C         -0.149807878552        1.022268868095       -2.635115762101
 C          0.079812563513       -0.094493702031       -3.613416757870
 C          0.039123185571       -1.429356505884       -3.041438062557
 C          0.138437355394       -1.604909562267       -1.701808634618
 O         -0.439085837777       -1.561999232041        3.480564333156
 O          0.118829451863        0.146970559195       -4.845748180278
