21
Frame 4
 N         -0.065612140983        0.671387380961        3.922409538296
 N          0.209879949146        1.470858199749        1.823644363819
 H         -0.130048577266        0.666545005087        4.908579098624
 H          0.379787676497        2.775954431441        3.505737849338
 H         -0.196433388483       -1.821244439394        0.837751562115
 H         -0.193412215273        1.729188486550       -0.681587346257
 H         -0.298804542762        1.990291394715       -3.132895572167
 H          0.234494817420       -2.290005459348       -3.785266820521
 H          0.052588040124       -2.570702251921       -1.240634695057
 C          0.160086285810        1.796671463631        3.059414751890
 C         -0.067057734142        0.086766175735        1.750305762480
 C         -0.089947270117       -0.469556154681        3.124348797832
 C         -0.075534405473       -0.753264048528        0.622696233076
 C          0.065463812865       -0.469764129989       -0.789420929249
 C         -0.042254282010        0.903438385839       -1.399783848666
 C         -0.139655456805        0.999369781485       -2.730568082547
 C          0.064160023409       -0.105488349674       -3.673648531670
 C          0.262028328564       -1.447439542058       -3.037888047021
 C          0.098337477079       -1.594584190780       -1.678783291339
 O         -0.155861514359       -1.645703058421        3.499689360321
 O         -0.072204883243        0.077280919601       -4.904100153296
