21
Frame 4
 N         -0.059881417233        0.699654391141        3.852556334854
 N         -0.047950164176        1.479182539044        1.735757100616
 H          0.039397964960        0.799396984880        4.856002135816
 H         -0.242013486564        2.762468164742        3.352803403903
 H         -0.006776183234       -1.824451955816        0.850656266233
 H          0.262719452866        1.644731321433       -0.630631955460
 H          0.180788155408        2.007412180570       -3.053910051819
 H         -0.112246391573       -2.249941535352       -3.715528815485
 H          0.057181220227       -2.605113304507       -1.308362550598
 C         -0.118371031560        1.774378516519        3.022904123581
 C         -0.024844043351        0.036151566517        1.712487688626
 C          0.032402300984       -0.482228136420        3.069424804564
 C         -0.004500271124       -0.780223564284        0.603420687733
 C          0.017967360745       -0.507756301051       -0.761968257918
 C          0.075928520903        0.799911068659       -1.271435588381
 C          0.030206926430        1.027221113159       -2.632975627854
 C         -0.064254259362       -0.076977312785       -3.603634385832
 C         -0.113899476156       -1.417512647043       -3.033162263619
 C         -0.004307056871       -1.599648958766       -1.702071778315
 O          0.171412720933       -1.655282300255        3.480673571600
 O         -0.068960842253        0.168628169616       -4.823004842245
