21
Frame 4
 N         -0.095689709240        0.683550151307        3.941852416874
 N          0.006738374358        1.425243055709        1.761124558258
 H          0.302722672363        0.645921363696        4.852237570478
 H         -0.035716386913        2.793432509618        3.292860295347
 H         -0.133652861038       -1.839843582682        0.898041086251
 H          0.069024722234        1.694751599701       -0.721183018313
 H         -0.067930514462        2.006167311384       -3.130226615467
 H          0.148781845210       -2.280479015272       -3.671688213150
 H          0.119329714486       -2.569662696006       -1.280187529348
 C          0.055730309921        1.756545872454        3.034663921798
 C         -0.038911714955        0.018673427277        1.775471504169
 C         -0.082241747021       -0.479519600782        3.113122333982
 C         -0.084723522094       -0.768354253395        0.658591452086
 C          0.031893868846       -0.458404781726       -0.748067457098
 C         -0.062814980346        0.813757677256       -1.348104504836
 C         -0.049109844907        1.012672467708       -2.717474181577
 C         -0.026483425544       -0.051924062205       -3.675476952703
 C         -0.010534566335       -1.396560044526       -3.052783144685
 C          0.031498452986       -1.574084100109       -1.698491934447
 O         -0.127513775385       -1.623498677869        3.627141567505
 O          0.049603087837        0.191615378461       -4.911423155124
