21
Frame 4
 N         -0.179251958260        0.680320405282        3.879775651774
 N          0.080273162088        1.486072426940        1.815194184693
 H         -0.154125565845        0.650960775665        4.889689209648
 H         -0.227442716528        2.791461507878        3.462295174395
 H          0.052414559166       -1.774888024562        0.846143878418
 H          0.318862587397        1.644825459883       -0.603022403546
 H          0.115625707719        1.953574675463       -3.178668416627
 H         -0.161472139731       -2.267543759485       -3.751694056309
 H          0.091805511782       -2.560298962206       -1.312723974468
 C         -0.056725861997        1.790249830221        3.066911888014
 C          0.000744343071        0.074715156696        1.730295181507
 C         -0.023734989980       -0.473596481500        3.086968151198
 C          0.155428339050       -0.723532043697        0.608812649823
 C          0.134171834240       -0.484895104347       -0.789448035106
 C          0.199856773104        0.851037954151       -1.358558180948
 C          0.104865267665        0.980821518320       -2.693907443158
 C         -0.131991998087       -0.118885423136       -3.632995268968
 C         -0.051474526776       -1.401952590527       -3.076430677511
 C          0.042351759749       -1.546137888300       -1.736560493212
 O          0.060217737711       -1.635868278719        3.586816951741
 O         -0.370397825535        0.083558845982       -4.838893971357
