21
Frame 4
 N          0.192951860793        0.689178441646        3.849489739365
 N         -0.111858667697        1.415839910197        1.786732637601
 H          0.088228992046        0.798530869051        4.847916453563
 H          0.153244543902        2.752371006018        3.348059291711
 H         -0.079066590392       -1.796641874209        0.902861700724
 H         -0.298320984584        1.707746225401       -0.638111908042
 H          0.101531320845        2.098796352405       -3.015326208662
 H          0.114075443082       -2.280607647340       -3.747818941478
 H          0.160929185450       -2.637810828501       -1.334332214974
 C          0.067377616947        1.734713371449        2.992076155388
 C         -0.095337917245       -0.017694054521        1.764034726496
 C         -0.035584044112       -0.507504045431        3.122120092329
 C         -0.059159175792       -0.765337510891        0.604038823163
 C         -0.076816582630       -0.542641783102       -0.767176722953
 C         -0.193089923172        0.819217141348       -1.354987133068
 C          0.025188877542        1.065407729550       -2.699699978205
 C          0.035145616280       -0.027507453424       -3.690843619261
 C         -0.001128817957       -1.432611198367       -3.057266008339
 C          0.017818488363       -1.610279895620       -1.688923060006
 O         -0.116540366913       -1.588241358836        3.686879824230
 O          0.110411125242        0.125076603178       -4.909723649582
