21
Frame 4
 N         -0.191690649056        0.723849074674        3.901916867707
 N          0.138582877922        1.430744178587        1.770901418219
 H          0.043994799075        0.717675825950        4.864438664861
 H          0.268264495361        2.776935022720        3.323002290640
 H          0.014838638394       -1.839236802766        0.973183989435
 H          0.029574739022        1.643530317382       -0.713724655780
 H         -0.200558639103        2.033028907566       -3.045807923401
 H          0.136630815426       -2.154096868187       -3.797900175102
 H          0.213254965592       -2.639302801478       -1.407568024879
 C          0.106601839200        1.771643782273        3.018890431458
 C         -0.059094272973        0.046206281146        1.785614148872
 C         -0.174086525530       -0.470517704051        3.153761311743
 C         -0.004702248473       -0.773562978926        0.639045988799
 C          0.093595440239       -0.554746918462       -0.754343547622
 C          0.028444893231        0.741524885245       -1.357409701123
 C         -0.081586576188        1.023851317518       -2.671968803519
 C         -0.107474001740       -0.051233408957       -3.654878896796
 C          0.160026097121       -1.344071304698       -3.070245797080
 C          0.120770245214       -1.626203577798       -1.715728197042
 O         -0.338047476918       -1.568695698189        3.634630717013
 O         -0.197339455816        0.112678470451       -4.875810106404
