21
Frame 4
 N          0.155274615882        0.679413460130        3.910984913582
 N         -0.340328272227        1.479265687049        1.829844345572
 H          0.569298283450        0.585138931928        4.807437604696
 H         -0.002178152678        2.790813036755        3.420646398001
 H         -0.095431577702       -1.764588121621        0.893248192981
 H         -0.345868410105        1.678325091873       -0.719034182296
 H          0.219049164529        2.008176564584       -3.066431992014
 H          0.229268384929       -2.297926009088       -3.645890236812
 H         -0.125753089333       -2.642777871367       -1.315983971018
 C          0.004405684406        1.785010016006        3.020692479445
 C         -0.316004247957        0.079658263355        1.738554928839
 C          0.000718881329       -0.434401789805        3.062441193360
 C         -0.264557917980       -0.735093946081        0.552968045794
 C         -0.253661087677       -0.491425141380       -0.812370569940
 C         -0.126955853233        0.827842470234       -1.361112183270
 C          0.061154445179        1.036215925537       -2.662514846861
 C          0.147680858429       -0.097118105464       -3.616918565543
 C          0.087509651683       -1.433256610403       -2.990246977971
 C         -0.144616930263       -1.625260081018       -1.654072304715
 O          0.218597478832       -1.592781845755        3.437316211721
 O          0.322398090509        0.164770074531       -4.829558483550
