21
Frame 4
 N          0.298987542981        0.710491716408        3.795480739038
 N         -0.231503648070        1.440493459884        1.728622292854
 H          0.425438350864        0.792102795409        4.827869305311
 H          0.176043732117        2.794394227537        3.358310359203
 H         -0.367049926897       -1.813200953875        0.899552399763
 H         -0.397490970577        1.577513734325       -0.574068355471
 H         -0.126763840185        2.054240744367       -3.041567504801
 H          0.290982888013       -2.189565652109       -3.742463652698
 H         -0.024790359722       -2.627015238153       -1.205338989623
 C          0.060780682214        1.789958185256        2.959595872476
 C         -0.210741033473        0.071266181359        1.730822808656
 C          0.028559396807       -0.506701384232        3.075718198961
 C         -0.255079211329       -0.774799198564        0.626654378127
 C         -0.201276440977       -0.541604456332       -0.767234883214
 C         -0.232938457024        0.794949349968       -1.340727821238
 C         -0.015876491317        1.033656904274       -2.662290600361
 C          0.236656711900       -0.029533086249       -3.582107019111
 C          0.103935775141       -1.429364037800       -3.012784059688
 C         -0.054581938553       -1.615120816448       -1.679331031560
 O          0.031745425467       -1.693477268644        3.411901285472
 O          0.464961812620        0.161314793619       -4.806613722097
