21
Frame 4
 N          0.007155957797        0.762426784597        3.868982804485
 N         -0.135341576641        1.346273558178        1.710177778189
 H          0.221321994618        0.844775086877        4.864121844534
 H         -0.230711278076        2.830765622740        3.253406292844
 H          0.083397962745       -1.948972642486        0.864887032951
 H          0.032274457760        1.629782761321       -0.621889426807
 H          0.139670295912        2.081299511395       -2.960067239073
 H          0.005705872902       -2.182473416807       -3.701087063991
 H         -0.183582743340       -2.660839666164       -1.394193918526
 C         -0.117862488548        1.782386141580        2.943654398715
 C         -0.034466840241       -0.067798606372        1.764023718042
 C          0.068474686005       -0.460743992714        3.140166967968
 C         -0.005317893167       -0.899761629480        0.630283150112
 C         -0.033732213242       -0.562281402673       -0.737464546618
 C          0.047134977256        0.767438556767       -1.295394796410
 C          0.134351729147        1.045361124601       -2.671129782836
 C         -0.028861428913        0.011010158751       -3.682861080273
 C         -0.055112501789       -1.358780576718       -3.062110802051
 C         -0.018556067932       -1.614021369520       -1.715147437005
 O          0.071218622867       -1.554586298817        3.694520354115
 O          0.032838474878        0.208740294941       -4.892878248367
