21
Frame 4
 N         -0.268371650877        0.666026390236        3.859759597214
 N          0.291583864844        1.408690668935        1.747135639772
 H         -0.298834847251        0.783715984792        4.864178262987
 H         -0.037366415642        2.725436592476        3.403875551836
 H          0.049235188752       -1.803396885536        0.881662874990
 H          0.203905423871        1.726343103103       -0.733975150572
 H         -0.094209103495        2.080255212053       -3.153312746934
 H         -0.014077338314       -2.257692791591       -3.698547816361
 H         -0.100723968069       -2.577846934929       -1.269578665822
 C         -0.047947047538        1.753348844564        2.967455746071
 C          0.252273451421        0.009978612293        1.785231288556
 C          0.015474409885       -0.547646864631        3.149132426843
 C          0.173116578737       -0.740319243647        0.629044137694
 C          0.120650797885       -0.465605747992       -0.759826965892
 C         -0.005824777226        0.874086372230       -1.363655018421
 C         -0.070705245410        1.049685605045       -2.722117552598
 C         -0.053016955951       -0.080367524983       -3.655202082170
 C         -0.015104839962       -1.419758400458       -2.995070761201
 C         -0.000543177455       -1.580834771760       -1.651241067457
 O          0.018298192697       -1.707350210403        3.610953426220
 O         -0.117812540904        0.103251990203       -4.895901124756
