21
Frame 4
 N          0.133865270606        0.648580906133        3.879575505620
 N         -0.181746075980        1.472562192345        1.825986649441
 H          0.415139112243        0.647942885101        4.881560308502
 H         -0.033192129341        2.803319122515        3.465880686951
 H         -0.137752002848       -1.763048598705        0.828986062381
 H         -0.164029396481        1.570260726780       -0.664501499781
 H          0.003170386816        2.063580713396       -3.123660439377
 H          0.211042782435       -2.266968937502       -3.636380613586
 H         -0.006333440434       -2.551155881014       -1.230066816765
 C          0.018241227800        1.780244716245        3.079544700033
 C         -0.050554418986        0.084716662783        1.737912384157
 C         -0.029614995005       -0.522113772504        3.112183108105
 C         -0.111890435757       -0.676202123533        0.628629810165
 C         -0.154727654844       -0.484186832774       -0.788694086762
 C         -0.064416463424        0.793438314120       -1.433722091002
 C         -0.043361791448        1.038886285911       -2.792213744620
 C          0.077918759404       -0.098125227930       -3.691922523035
 C          0.072617558550       -1.395100819528       -3.021137587903
 C         -0.112738074109       -1.566253860217       -1.687902159917
 O         -0.075164899031       -1.655597297968        3.574458981852
 O          0.233526679833        0.075220826345       -4.944516634459
