21
Frame 4
 N         -0.044514444753        0.710962020473        3.874700766075
 N          0.042895306373        1.445756141135        1.740394953191
 H          0.036094143265        0.750333710040        4.884023524048
 H          0.213187098297        2.796409066040        3.437228114780
 H         -0.014869446991       -1.886325647390        0.861578036777
 H          0.019565914931        1.676313919748       -0.676202652512
 H         -0.173885101063        2.012620578176       -3.081933716563
 H          0.146815551733       -2.198679432159       -3.740723651041
 H          0.071545049469       -2.587088619238       -1.324789319730
 C          0.065267054352        1.764230048165        3.003676890358
 C         -0.075734590035        0.069681988305        1.725336122176
 C         -0.084024370036       -0.484436674237        3.053969807610
 C         -0.103414830852       -0.814355034295        0.607277021954
 C         -0.008306625498       -0.502070366654       -0.715443022710
 C         -0.051793486759        0.778772297973       -1.314409796180
 C         -0.066376378952        1.016147932483       -2.657456821876
 C         -0.008363101582       -0.086872103223       -3.648930910883
 C          0.127061488946       -1.369047343514       -3.000392182875
 C          0.094642646331       -1.549903089997       -1.652519872554
 O         -0.159478053281       -1.623187860789        3.497693020817
 O         -0.026313823895        0.080738468957       -4.873076310862
