21
Frame 4
 N         -0.026840856327        0.683625645052        3.937662909514
 N         -0.015947284235        1.424454183297        1.781906238782
 H         -0.211727730196        0.758446394809        4.908941232420
 H         -0.278632022326        2.807186229127        3.317422636504
 H          0.145236124926       -1.860687585727        0.842134594184
 H          0.074271832859        1.764027424200       -0.706708542485
 H          0.049957721873        2.047335816196       -3.062099221070
 H         -0.305570658262       -2.264824652155       -3.644017241159
 H         -0.229268733899       -2.571765485833       -1.358919744660
 C         -0.141925186187        1.762869820044        3.040341950234
 C          0.147911330834        0.006183877041        1.775803108783
 C          0.119277003538       -0.517572247412        3.143512410622
 C          0.203120204147       -0.788232067884        0.601931833329
 C          0.085987047067       -0.489649346460       -0.776481839987
 C          0.075760521686        0.855701898441       -1.315021338226
 C          0.170385419846        1.018469690308       -2.674989538867
 C          0.011127893648       -0.070252169438       -3.699003469492
 C         -0.096188681020       -1.384674921444       -3.056904383010
 C         -0.066701829407       -1.581086632719       -1.714180567531
 O          0.213477150453       -1.658365221325        3.601760554134
 O          0.076290730982        0.058809351881       -4.943091582019
