21
Frame 4
 N         -0.104781824851        0.633654217209        3.900745475495
 N         -0.041709538664        1.505206518381        1.818103512059
 H          0.266834532560        0.616475452339        4.888784199020
 H         -0.137427797515        2.818264518099        3.472837172665
 H         -0.010084015748       -1.742535004417        0.871434980576
 H         -0.084927920910        1.716720609282       -0.710760401104
 H          0.024126155980        2.045962250971       -3.092428482369
 H         -0.038661491573       -2.276288963907       -3.711552685626
 H         -0.257655953660       -2.597882484167       -1.311196703161
 C         -0.142699936347        1.775349498603        3.063930726615
 C          0.086740853077        0.094214349443        1.701841046070
 C          0.052157260792       -0.509545551827        3.023420176598
 C         -0.016400134666       -0.691678619380        0.589255431377
 C         -0.040069434443       -0.432185340734       -0.778123395542
 C         -0.020011724379        0.865714402838       -1.338096469005
 C         -0.058107064942        1.027908853592       -2.672043591680
 C          0.141133428767       -0.129929681867       -3.621790348516
 C          0.032976427261       -1.450275491658       -3.005562548262
 C         -0.108611063888       -1.570835442417       -1.670783827134
 O          0.175124493530       -1.652702750632        3.408148163618
 O          0.282054749620       -0.045611339752       -4.826162431693
