21
Frame 4
 N          0.252343255268        0.754302135428        3.858501545544
 N         -0.101943298850        1.434756093289        1.741779504275
 H          0.230893415663        0.773210256628        4.864129943115
 H         -0.182010775614        2.795207914542        3.260025595776
 H         -0.192279369936       -1.897034362354        0.853967105711
 H         -0.057351893686        1.649838152721       -0.621068193748
 H         -0.091675252762        1.993862265389       -3.016409608840
 H          0.102502268747       -2.269684829277       -3.737044317818
 H         -0.229967423832       -2.598506339835       -1.407698346983
 C         -0.003111973622        1.775039481389        2.996464745710
 C         -0.042819268804        0.039246584288        1.732746791860
 C          0.082033507468       -0.483928642364        3.135669073724
 C         -0.210024214484       -0.822443307051        0.639183719528
 C         -0.167342838515       -0.541806668757       -0.744668966726
 C         -0.186763605920        0.812349422308       -1.305784593064
 C         -0.143462708794        0.997226800013       -2.653481852566
 C          0.202129410746       -0.063009017381       -3.597532557420
 C         -0.012701399455       -1.387021268054       -3.086336911730
 C         -0.173628258729       -1.553148939605       -1.739499853419
 O          0.293569901837       -1.610789028139        3.564980373453
 O          0.631610523274        0.202333296822       -4.737923196382
