21
Frame 4
 N          0.042641422679        0.702285053040        3.864195972140
 N         -0.015416265178        1.487778058210        1.719181726033
 H         -0.006723488941        0.707657518823        4.872480366735
 H         -0.036886054985        2.809729054067        3.399788296558
 H         -0.049865099848       -1.829539203316        1.022812182996
 H         -0.275556496297        1.637698646782       -0.598854538702
 H          0.147456012020        1.999992860836       -3.056985466857
 H         -0.040094070870       -2.272437104373       -3.702008472536
 H         -0.113276327840       -2.637505866286       -1.378256938124
 C         -0.059503162171        1.821170429038        2.950435284408
 C          0.029954977509        0.066919477558        1.686655192769
 C          0.083820332329       -0.466046075075        3.084380019710
 C         -0.066188710462       -0.815164480766        0.612354437416
 C         -0.044677519629       -0.526549763645       -0.759540142225
 C         -0.075119920732        0.832113729208       -1.279268673806
 C          0.074640724094        1.007933976659       -2.609519083582
 C          0.109268349135       -0.063671847514       -3.641565532639
 C         -0.037038049751       -1.355502505942       -3.053331777725
 C         -0.006157712067       -1.596521294184       -1.697295111563
 O          0.197338947298       -1.657569598920        3.427213938221
 O          0.141382113707        0.147228935799       -4.862871679227
