21
Frame 4
 N         -0.029307872366        0.670664547313        3.896465871459
 N         -0.316479760766        1.435453378172        1.750563749268
 H         -0.033993465130        0.712873471486        4.919661747745
 H         -0.342840672706        2.719469931084        3.365943550690
 H          0.215382922642       -1.827689720179        0.830232067387
 H          0.293474133292        1.713033552619       -0.632630619170
 H          0.355411101488        1.981158872580       -3.106164697756
 H         -0.278917707242       -2.276488796505       -3.682144502139
 H         -0.209874223020       -2.562867520794       -1.237379062617
 C         -0.211439485282        1.724539004634        3.007567383560
 C         -0.055336892979        0.073750683028        1.693600920660
 C          0.138931445515       -0.482026927808        3.036772353087
 C          0.084044398522       -0.751885718427        0.598962983881
 C         -0.022740962792       -0.470731930428       -0.753363184042
 C          0.129241318937        0.860006156079       -1.311668236922
 C          0.168099203729        1.034101681358       -2.678561849402
 C         -0.021990309774       -0.064216039517       -3.657661273860
 C         -0.103668952367       -1.393558262116       -3.035148222743
 C         -0.088576497998       -1.576937075022       -1.649238769313
 O          0.403658062558       -1.605677802149        3.527285848103
 O         -0.073075784262        0.087028514594       -4.883096057877
