21
Frame 4
 N         -0.006150951698        0.635695487599        3.907640106284
 N         -0.293345275067        1.546888202841        1.858696644442
 H         -0.178445670347        0.538906216673        4.894436836707
 H         -0.278702526798        2.768276611016        3.566612231258
 H          0.130077940281       -1.683329285528        0.798735247935
 H          0.341659374653        1.682834988599       -0.693657706194
 H          0.380644245678        1.931681211567       -3.184437564488
 H         -0.233261758284       -2.331143321993       -3.704038409666
 H         -0.045144314099       -2.580384096566       -1.258679993193
 C         -0.199975737684        1.782233425537        3.116110403954
 C         -0.033500411076        0.160018432829        1.725656686465
 C          0.094993452342       -0.457388263340        3.038118487155
 C          0.071454068497       -0.656890741924        0.575811308296
 C          0.171377288671       -0.466848568993       -0.808128873183
 C          0.243835041798        0.838860999216       -1.356885435503
 C          0.181611555823        0.972835010270       -2.710354651550
 C         -0.163650286809       -0.110535751223       -3.631392178986
 C         -0.149185487980       -1.415310076686       -3.062706349217
 C          0.035627256919       -1.590482402019       -1.675847427832
 O          0.269946744504       -1.616645621283        3.476484773594
 O         -0.339864549322        0.050727543410       -4.872174136277
