21
Frame 4
 N         -0.312725744085        0.685622796692        3.834849870301
 N          0.095686697660        1.535144996067        1.801330158984
 H         -0.077332908008        0.682705864995        4.841195569667
 H         -0.011272152365        2.821165383936        3.518764518109
 H          0.082659804643       -1.815841767692        0.846955209823
 H          0.202342986468        1.652242823548       -0.656440941028
 H          0.060894106622        1.971280045769       -3.063337724719
 H         -0.006662844315       -2.224525252023       -3.775829095031
 H          0.004303045208       -2.604848784893       -1.313889928482
 C         -0.078788048107        1.820871032613        3.054510256964
 C         -0.013687749120        0.075891426501        1.706370811310
 C         -0.049249021944       -0.489546280978        3.039854632965
 C          0.083773836653       -0.763002964614        0.581235825103
 C          0.175392692992       -0.498904685542       -0.759846152000
 C          0.144834310092        0.781251928855       -1.329678790418
 C          0.110263574180        0.987905108237       -2.659254023011
 C         -0.074048294511       -0.093291702906       -3.632288107822
 C         -0.057691926046       -1.431683635273       -3.051427894889
 C          0.139544502481       -1.558494083241       -1.691027382776
 O          0.013303855137       -1.622146418412        3.538960840254
 O         -0.431540723634        0.088204168360       -4.831007653305
