21
Frame 4
 N          0.209141734132        0.700017195777        3.809498834400
 N         -0.122220349807        1.402604788275        1.742935941141
 H          0.219605306991        0.747770784268        4.837343489493
 H         -0.055497858118        2.778442222359        3.369144754790
 H         -0.108715692410       -1.927934845492        0.805155103815
 H         -0.262046535240        1.725441259121       -0.672115839477
 H          0.019146157836        2.013481054387       -3.219092719711
 H          0.127332316880       -2.170667346052       -3.643405661925
 H         -0.114257782312       -2.609001982166       -1.290175178979
 C         -0.008428423359        1.780228937866        2.999508550218
 C         -0.078959801462       -0.002120664704        1.764486815403
 C          0.115933047253       -0.529848577734        3.095957274500
 C         -0.108019906106       -0.834553078173        0.635915515089
 C         -0.125488435145       -0.482035881160       -0.744286091085
 C         -0.169282126718        0.863826115228       -1.340508424740
 C          0.003614025957        1.066489655764       -2.706250926847
 C          0.152741373901       -0.040327839519       -3.587002975807
 C         -0.056438430569       -1.336693293520       -3.010050911391
 C         -0.129737907107       -1.555588105936       -1.658152105584
 O          0.081845505033       -1.647020385307        3.641079862598
 O          0.409733780369        0.057489986719       -4.829985305902
