21
Frame 4
 N         -0.157154016634        0.726807617893        3.847248669380
 N         -0.029699140104        1.421268446761        1.696693557966
 H          0.043170358036        0.717087289180        4.827683925080
 H         -0.128242065669        2.800702211884        3.345204540401
 H          0.146670997573       -1.855496736738        0.960955595700
 H          0.301466175307        1.548296069325       -0.549420511338
 H          0.103352041180        2.044607541142       -3.015770678578
 H         -0.007804253359       -2.276796284457       -3.740934190072
 H          0.038276592726       -2.593916815452       -1.317506510268
 C         -0.108731661706        1.806544565481        2.950017308470
 C          0.007296472982        0.062153888157        1.703267559601
 C         -0.066390931441       -0.465423994737        3.105037647562
 C          0.006444089526       -0.820071851125        0.626935547379
 C          0.045428525339       -0.556050453266       -0.766617062101
 C          0.170709652257        0.812121190793       -1.315734468686
 C          0.059066494551        1.025136368499       -2.650205835591
 C         -0.090427354557       -0.058429673237       -3.661909367670
 C         -0.033829034202       -1.397954984028       -3.088302279037
 C          0.010926839736       -1.591177591696       -1.729565677178
 O         -0.000149988948       -1.591577614322        3.624755747290
 O         -0.310379792594        0.242170809942       -4.851833518308
