21
Frame 4
 N         -0.200406970053        0.727867013863        3.880338549539
 N          0.119697627316        1.437664791036        1.788409278970
 H          0.147344227493        0.677657212595        4.827820546786
 H          0.114984251092        2.808658051579        3.396438761033
 H          0.092066823281       -1.858232042952        0.932425645044
 H          0.043016157619        1.719588724183       -0.676438889609
 H         -0.092400463929        2.070341497504       -3.038259810697
 H          0.191399824076       -2.274386532828       -3.737470030608
 H          0.145326103442       -2.580064460581       -1.259053051748
 C          0.011701079726        1.771016888358        3.046356403068
 C          0.074157770966        0.017285172321        1.765703624480
 C         -0.205033329300       -0.481475921145        3.110474939149
 C          0.094333766162       -0.800874328929        0.579938501745
 C          0.072983287862       -0.507690951038       -0.808649961706
 C          0.033741169510        0.839399718365       -1.352908724547
 C          0.015905399143        1.018972841970       -2.723382703053
 C         -0.086896703447       -0.041397646283       -3.665421735376
 C          0.048014932434       -1.397073805187       -3.059053935256
 C          0.003387663967       -1.607093072158       -1.722162925129
 O         -0.347499887215       -1.620515370381        3.611594447850
 O         -0.275822730143        0.080352219707       -4.896698929935
