21
Frame 4
 N         -0.028370188913        0.744509448162        3.848939068940
 N          0.178826061802        1.510760380995        1.761016107182
 H         -0.145723109682        0.704924268021        4.844044623310
 H          0.148336471614        2.789482949319        3.402697648172
 H         -0.121009802912       -1.784683455363        0.951307013780
 H         -0.104947519150        1.556356380271       -0.524449201862
 H         -0.140656870727        2.072861620876       -2.976686912554
 H          0.038699140390       -2.255054068507       -3.821113183300
 H          0.155921979825       -2.696245522633       -1.390142916881
 C          0.042324880866        1.800021291564        3.023119179461
 C          0.059694868794        0.092916116055        1.674053686273
 C         -0.044845776152       -0.423299401764        3.015108093282
 C          0.030800558402       -0.792449313779        0.592142852610
 C          0.098993959514       -0.557019814671       -0.776191435862
 C         -0.002943619520        0.792437741773       -1.296577918120
 C         -0.015772581484        1.030113374041       -2.629323895583
 C          0.010539910995       -0.055037425646       -3.570154854051
 C          0.075726952269       -1.415525610638       -3.041453427133
 C          0.061762198216       -1.648014706711       -1.723067775153
 O         -0.177106355577       -1.572197213757        3.453670574664
 O         -0.120251158569        0.105142962393       -4.816937327176
