21
Frame 4
 N         -0.067125754899        0.644613645804        3.947362275417
 N         -0.045537060562        1.492550368313        1.854797843040
 H          0.314545485575        0.552521633601        4.850955451314
 H          0.150591541386        2.753558598286        3.546345753178
 H          0.005787300868       -1.780199257796        0.822105071570
 H         -0.141975899590        1.748345950628       -0.749620052232
 H         -0.107683100814        1.992347188020       -3.182785876812
 H          0.073208576016       -2.295000193448       -3.622935481915
 H          0.065666652571       -2.515498834661       -1.217703160130
 C         -0.002446942122        1.773149997304        3.139096223968
 C         -0.050005013593        0.098140950824        1.735206302156
 C         -0.117713544612       -0.480047287485        3.046726008821
 C         -0.124822336229       -0.664786460079        0.566283683844
 C         -0.061776734244       -0.385690904023       -0.800453797776
 C         -0.059030859601        0.841996824053       -1.409570339302
 C         -0.041294107020        1.012720136256       -2.755957261124
 C          0.068001745838       -0.130803943351       -3.666149517344
 C          0.046161832243       -1.422548174733       -2.999231257655
 C          0.014627660699       -1.529011194570       -1.656934872382
 O         -0.119469283138       -1.659290872544        3.466648720165
 O          0.200289841229       -0.047068170398       -4.914185716799
