21
Frame 4
 N         -0.202591039323        0.693929160989        3.934615143859
 N         -0.029569589608        1.458417298298        1.808841635312
 H          0.202641347836        0.722408772428        4.862327908962
 H         -0.001623967101        2.862204258255        3.382162730921
 H          0.048191644426       -1.829144045369        0.854399560026
 H          0.066523349733        1.679404822375       -0.572741991123
 H          0.036820410335        2.038594491308       -3.178859127703
 H          0.086798062075       -2.285047084528       -3.721310729180
 H          0.009257431524       -2.595878322127       -1.281668262338
 C         -0.034830929874        1.798324117012        3.063247963113
 C         -0.091326125267        0.049152051735        1.741712940111
 C          0.002724395605       -0.522498615883        3.056992883305
 C         -0.045122444903       -0.765172211118        0.582398373303
 C         -0.045438994471       -0.474895807677       -0.774700772154
 C         -0.018504584707        0.862161369615       -1.294853583515
 C          0.007145858276        1.035548558468       -2.678126441661
 C         -0.034475023368       -0.091666490854       -3.642645925579
 C         -0.087112852203       -1.448972119539       -3.061275273829
 C         -0.048860633659       -1.589515588941       -1.719699774373
 O          0.076779881664       -1.695538232219        3.508932202299
 O          0.102573803009        0.098183617773       -4.869749459757
