21
Frame 4
 N          0.192488679541        0.750172224222        3.849608671379
 N         -0.127233608895        1.425421967060        1.786983087427
 H          0.283084303049        0.790788191770        4.887335575594
 H          0.112493655887        2.883717834399        3.294342691642
 H         -0.156662598560       -1.855150993841        0.831110679399
 H         -0.248524959713        1.536623351570       -0.680406664452
 H         -0.145067298742        2.043532157354       -2.970571597765
 H          0.194143663674       -2.167123978458       -3.819138392641
 H         -0.067674053795       -2.725508698091       -1.345001304972
 C          0.056851618030        1.837602979798        2.976805741129
 C         -0.202987443952        0.024565118788        1.771907926227
 C         -0.012572959896       -0.502491908011        3.129053703419
 C         -0.059393159172       -0.774822284223        0.602117948434
 C         -0.030431351038       -0.584820431832       -0.788084707566
 C         -0.105414585156        0.737218274674       -1.353629392715
 C         -0.089380676523        1.016534125808       -2.642417170383
 C          0.121131387927       -0.041331348166       -3.601678651406
 C          0.075722649872       -1.382481110221       -3.068400886814
 C         -0.025991043520       -1.652719775842       -1.721223787571
 O         -0.091910021672       -1.626418070708        3.656366934025
 O          0.327327802654        0.266692373953       -4.795080402389
