21
Frame 4
 N          0.106012346159        0.744272788452        3.889373838526
 N          0.107189983262        1.457433463479        1.749807845154
 H          0.247976536263        0.759533939437        4.908089894201
 H          0.000013183104        2.817750029904        3.369337689078
 H         -0.203634246413       -1.854997808056        0.953469289733
 H         -0.058517378599        1.544676978584       -0.615069358805
 H         -0.102389570835        1.997059108891       -3.019896335169
 H          0.284698742207       -2.121987653448       -3.907727792547
 H          0.082235898752       -2.667440061321       -1.376709948061
 C          0.085498912546        1.812243583073        2.988584816077
 C         -0.057613052240        0.061298517978        1.737076153045
 C         -0.059429190880       -0.459704990522        3.096176868784
 C         -0.150909188520       -0.814275176066        0.660392504160
 C         -0.142539370449       -0.602660186042       -0.783208843883
 C         -0.096881725916        0.717192688624       -1.313382632007
 C         -0.102218207531        0.998932376845       -2.627946417284
 C          0.040137059648       -0.055083246378       -3.661807912788
 C          0.147174652367       -1.379605660287       -3.076604363249
 C         -0.032858420625       -1.619591055680       -1.737074943148
 O         -0.171136994492       -1.537007508631        3.642006004447
 O          0.077190032192        0.201959871163       -4.874886356264
