21
Frame 4
 N          0.040088092627        0.692887214067        3.812853770830
 N          0.072649069061        1.406968081431        1.709230296368
 H         -0.053510566714        0.739147614021        4.842570465785
 H          0.113879948155        2.853277301185        3.320130835317
 H          0.070070468377       -1.850400487781        0.922236262914
 H         -0.141903441221        1.649595680998       -0.625412694927
 H         -0.212762911003        1.980332319651       -2.958576384410
 H          0.014874038686       -2.207941044794       -3.814539620233
 H         -0.069723148724       -2.558350368874       -1.248452227395
 C          0.150537785118        1.774581497023        2.947263084189
 C         -0.007150308712        0.042680993725        1.720038695599
 C         -0.098553475483       -0.477775577247        3.074233724883
 C          0.097999304602       -0.780586116980        0.625552869547
 C          0.108103803555       -0.531848342481       -0.777192463902
 C         -0.077221554408        0.778741812402       -1.273908344274
 C         -0.165478619292        0.974414933337       -2.622299445685
 C          0.058952655503       -0.035716973119       -3.594034605853
 C          0.076555463875       -1.384653754908       -3.062815083825
 C          0.045885155794       -1.602539531083       -1.695908919762
 O         -0.213658431881       -1.630815549656        3.542022726014
 O          0.190366672088        0.168000299082       -4.842992941179
