21
Frame 4
 N         -0.247826090450        0.694773704699        3.781597965427
 N          0.260506494187        1.479338678710        1.769838500162
 H         -0.408072045977        0.675373881811        4.794873266786
 H          0.160598556188        2.759744226515        3.443487809329
 H          0.074076875733       -1.795658610424        0.948191407833
 H          0.152939143171        1.644125147893       -0.615384716025
 H         -0.229322278067        2.038097045716       -3.008578846443
 H          0.084809954203       -2.298246357604       -3.743633552198
 H          0.029894230854       -2.659119275210       -1.241822436248
 C          0.096338989941        1.778129650772        3.015368588524
 C          0.138576023474        0.081803080444        1.707463862360
 C          0.018666251300       -0.471950263472        3.011015079878
 C          0.147255339366       -0.760458477675        0.598504948238
 C          0.058697280980       -0.506324423956       -0.761223813804
 C          0.050841499463        0.851196561055       -1.313147958373
 C         -0.056025955107        1.025419991819       -2.665814169769
 C         -0.123204831001       -0.083731753678       -3.630557015044
 C         -0.009334493504       -1.384207452016       -3.055290748467
 C          0.045438785332       -1.608450267239       -1.675621860300
 O         -0.115550567111       -1.593075272473        3.497825744659
 O         -0.129303162975        0.133220184313       -4.857092056523
