21
Frame 4
 N          0.226149451532        0.670901687239        3.855632632467
 N         -0.254120418939        1.407903574913        1.780980047549
 H          0.232544870874        0.713398171465        4.884988982415
 H         -0.275888519683        2.808122283723        3.349714829294
 H         -0.030033422317       -1.838375622423        0.893747745590
 H         -0.130840737612        1.629532672306       -0.572516970744
 H          0.216762896462        1.993528139654       -3.148590483708
 H          0.084396150703       -2.221381583089       -3.746809030955
 H         -0.332758205944       -2.575156297226       -1.265331337619
 C         -0.146877771522        1.770408206778        3.020158363440
 C         -0.090008067259        0.046911638375        1.763508266216
 C          0.180457075000       -0.485281393010        3.098341699763
 C         -0.097270720629       -0.781121955687        0.623284534037
 C         -0.276912739713       -0.470438079855       -0.753552377668
 C         -0.019800578371        0.834097281365       -1.310005905126
 C          0.118477331805        1.010480058957       -2.684771915622
 C          0.112628970121       -0.092601313178       -3.668447153661
 C         -0.051454953369       -1.371943927015       -3.066635590653
 C         -0.212774321343       -1.537966360534       -1.703701059679
 O          0.390576871283       -1.608409656107        3.539404221276
 O          0.356746838921        0.097392473349       -4.889399496612
