21
Frame 4
 N          0.103175087677        0.731778209079        3.843445239256
 N          0.125595847570        1.345951393915        1.668850266806
 H          0.261046190856        0.734342556931        4.839637449364
 H          0.457295562865        2.772678901415        3.216807095818
 H         -0.532268667482       -1.886889723302        0.882227073596
 H         -0.414197892129        1.605399002644       -0.602315494094
 H         -0.319393902117        2.018793089044       -3.142198963653
 H          0.531972681389       -2.119771900767       -3.736277295333
 H          0.198814736141       -2.588736709703       -1.248279710707
 C          0.233598811977        1.764966157081        2.916468928041
 C         -0.217059549148        0.009298221143        1.775312514398
 C         -0.125704637741       -0.462983333067        3.085872044649
 C         -0.262753031386       -0.850155242703        0.616056340419
 C         -0.196100002992       -0.524038184342       -0.753798258088
 C         -0.167778778466        0.824404291974       -1.312134516459
 C         -0.048352770388        1.089340713654       -2.616744571778
 C          0.102956017759       -0.019598245887       -3.564664639171
 C          0.385170621564       -1.360914628354       -2.959143057979
 C          0.103941342212       -1.599885861201       -1.651438610239
 O         -0.220346158310       -1.622433546755        3.551685823878
 O          0.000388490152        0.138454839202       -4.809367658723
