21
Frame 4
 N         -0.077991779632        0.613993335876        3.952466890155
 N          0.042306989524        1.606207323005        1.909695731255
 H          0.095576994757        0.506215273412        4.950613426926
 H         -0.127952743741        2.769280489922        3.633418671115
 H         -0.153852167513       -1.691903719968        1.007173927034
 H          0.014115549518        1.744661733524       -0.780413616455
 H         -0.087034323648        1.964725315302       -3.232949802019
 H         -0.104541019339       -2.320524780929       -3.654419230590
 H          0.034088283624       -2.573624813007       -1.257404949980
 C          0.025643735381        1.748566527174        3.192858929482
 C          0.076969218928        0.177113565529        1.738752744791
 C         -0.039543209964       -0.454790215315        2.985086485135
 C          0.048120984081       -0.663047168464        0.613257309965
 C          0.174379679860       -0.433330325185       -0.785748532432
 C          0.095351583366        0.868644011710       -1.422277139598
 C          0.002665655441        0.999014967559       -2.767145127585
 C          0.056700782123       -0.159058944868       -3.712431164922
 C          0.077561483366       -1.466942354083       -3.062266575377
 C          0.093438450082       -1.587176577816       -1.675293944780
 O         -0.121202568098       -1.649629947904        3.285673529428
 O         -0.124801578117        0.001606304525       -4.918647561549
