21
Frame 4
 N         -0.222323649727        0.658185119840        3.892572181454
 N          0.219083530938        1.449752014835        1.832827769880
 H         -0.438701893144        0.607843334661        4.894145646176
 H          0.146230525535        2.802394531140        3.426078455379
 H          0.168326934633       -1.747377895697        0.845774277533
 H          0.180711204616        1.698472064488       -0.733639904413
 H         -0.148981344794        2.016869032552       -3.173854782198
 H         -0.161217876953       -2.315213218631       -3.631705130141
 H          0.058753287219       -2.596681314916       -1.269014148956
 C         -0.050467809791        1.799084680890        3.089711116335
 C          0.158415855999        0.071228705487        1.766379190995
 C         -0.066644561009       -0.511711558221        3.081590126754
 C          0.200857759737       -0.712004148230        0.627700635559
 C          0.291786451294       -0.448702568298       -0.738891138622
 C          0.108580487256        0.825547779065       -1.388418748655
 C         -0.039401098994        1.019545027981       -2.754698286270
 C         -0.108707421655       -0.080965381988       -3.687121813127
 C         -0.032985332412       -1.401695105363       -3.050267748099
 C          0.118795255547       -1.571808819363       -1.665916953511
 O         -0.134815752179       -1.673725286450        3.565395858259
 O         -0.247294552116        0.110963006219       -4.928646604332
