21
Frame 4
 N          0.117701529310        0.735437477072        3.830925014479
 N         -0.072946345869        1.400523504858        1.694973265561
 H          0.040549984679        0.679357482363        4.800739556481
 H          0.025677882086        2.810134002532        3.190526051234
 H          0.209825882855       -1.834702875069        0.887654620690
 H         -0.141116328855        1.601063706739       -0.550907197037
 H         -0.041827742307        2.062434915027       -3.009120197971
 H          0.026525910928       -2.204479611088       -3.685036612749
 H         -0.101725221563       -2.632368667231       -1.251155705227
 C          0.037723490340        1.798986847446        2.908207238379
 C         -0.020151659827        0.020948221164        1.713055779683
 C         -0.019922543239       -0.502711900219        3.150516368878
 C          0.040632925762       -0.807276978208        0.616481592503
 C         -0.090527003607       -0.535280440926       -0.753102538439
 C         -0.026022564067        0.792881203746       -1.286758375603
 C         -0.025685673394        1.040943778865       -2.638245182959
 C          0.058063305954       -0.009871614431       -3.652603834863
 C          0.072818063367       -1.334688947407       -3.032196013932
 C         -0.078764781884       -1.641142335938       -1.701809187827
 O         -0.155182428998       -1.632880021903        3.662394018390
 O          0.144353318329        0.192692252609       -4.894538659670
