21
Frame 4
 N          0.104783387692        0.712237040739        3.818086510929
 N         -0.370368565955        1.361342218155        1.744673953544
 H          0.277119379880        0.666398760249        4.797880597737
 H         -0.535775460375        2.729411860742        3.365377188739
 H         -0.056824876273       -1.856757989454        0.862527637766
 H          0.145798538809        1.652329383517       -0.636485665778
 H          0.430206685224        1.989046923349       -3.087219789595
 H         -0.213238708407       -2.202752967863       -3.708107228330
 H         -0.268712145892       -2.591125469409       -1.284542237710
 C         -0.243309027055        1.753670843238        2.970644843826
 C         -0.111651823852        0.024586812403        1.749327243282
 C          0.224303991607       -0.431149421677        3.076566439755
 C         -0.118212017406       -0.778807701191        0.631899173264
 C         -0.106718836909       -0.496900417541       -0.710732157226
 C          0.066620730438        0.832744952045       -1.311696636987
 C          0.187394253247        1.036088135940       -2.642289235314
 C          0.136749951256       -0.069483306291       -3.597812302510
 C         -0.114254653437       -1.359171518943       -3.037490858444
 C         -0.175413225086       -1.561858048503       -1.669543896710
 O          0.596036508421       -1.506388465689        3.508092897995
 O          0.145465914073        0.096538376185       -4.839156478235
