21
Frame 4
 N          0.098663898563        0.679139793764        3.846263669051
 N         -0.116188794098        1.460452352057        1.773800910731
 H          0.007178175114        0.577383738460        4.887286249089
 H         -0.131959128998        2.803723675499        3.343707622375
 H          0.125281153357       -1.803722233508        0.878993358415
 H          0.146410888893        1.769820261749       -0.696377302588
 H         -0.096938670901        2.005901075101       -3.127210569421
 H         -0.053838235553       -2.269316600074       -3.647110388709
 H         -0.074756465973       -2.659420509340       -1.352920309425
 C         -0.103721855030        1.760484886669        3.016263536315
 C          0.015559244904        0.046808180665        1.728543207316
 C          0.070579056555       -0.481858363038        3.085760372058
 C          0.066517469899       -0.744504046073        0.635472112656
 C         -0.030566328568       -0.463340770446       -0.770829719782
 C          0.091901488436        0.859665402662       -1.337124644668
 C          0.044817550338        1.042987231384       -2.669406876682
 C         -0.014442974937       -0.072751373638       -3.624090491525
 C         -0.122363658539       -1.393008704516       -3.021256665219
 C         -0.094142363473       -1.632025327116       -1.670603535596
 O         -0.020396919942       -1.595395403327        3.574706264033
 O          0.192406469952        0.108976733066       -4.853866798425
