21
Frame 4
 N          0.037770633305        0.743304262468        3.843068291366
 N          0.306716316424        1.442604380110        1.702968664563
 H         -0.224560517924        0.743673421672        4.823254338451
 H          0.285102391364        2.768340837268        3.355892911926
 H         -0.017994347697       -1.869134145302        0.924444342631
 H         -0.068293646132        1.610013727539       -0.577058803603
 H         -0.287782409514        2.027099167401       -2.928817944150
 H          0.205954831592       -2.188873134856       -3.789366264926
 H          0.243291929382       -2.619000178126       -1.376511414774
 C          0.219826476825        1.788504492134        2.950838869756
 C          0.004757138766        0.016172955121        1.758301685293
 C         -0.187143757848       -0.446434457526        3.093899999032
 C          0.068578459155       -0.827678529997        0.640731604356
 C          0.087923002494       -0.528403040045       -0.760509685730
 C         -0.120881573691        0.792483445335       -1.289160437308
 C         -0.102725492211        0.999857492274       -2.625357229994
 C         -0.092466751579       -0.061389741556       -3.637197148224
 C          0.085508115854       -1.411195439548       -3.087550753718
 C          0.175681756607       -1.581261176513       -1.742345315197
 O         -0.468178516544       -1.535430841134        3.609936620497
 O         -0.151084038628        0.136746503281       -4.889462330247
