21
Frame 4
 N         -0.077459290175        0.686893167411        3.827438093765
 N         -0.058480683893        1.416080404025        1.705627393115
 H         -0.013633812736        0.756660908347        4.845500090153
 H         -0.005351016737        2.848230751526        3.281649559534
 H         -0.085559579375       -1.854787544335        0.938699028888
 H          0.038272737723        1.669123519683       -0.582773432432
 H          0.053333596852        1.993332658667       -3.095618540625
 H         -0.035670967367       -2.268270676853       -3.703113775929
 H          0.080391380148       -2.593196916793       -1.340777327090
 C         -0.066468426495        1.762567567938        2.944512714643
 C          0.056698685121        0.001079907236        1.710638887640
 C          0.092127816922       -0.495649574952        3.108300808686
 C          0.054241483734       -0.838116365647        0.603539996714
 C          0.042625675722       -0.518213130359       -0.753018727777
 C          0.062370523750        0.821290942104       -1.275919705926
 C         -0.019603656877        1.021382470006       -2.610456785374
 C         -0.063058775519       -0.026079123804       -3.624763877001
 C         -0.025756025713       -1.372385901750       -3.055105752189
 C          0.018286829680       -1.576758111625       -1.708396011231
 O         -0.027180989943       -1.642980171767        3.625536412055
 O         -0.020125504821        0.209795220944       -4.841499049617
