21
Frame 4
 N         -0.095990317513        0.707291885666        3.880290087249
 N          0.131739751332        1.420450158474        1.697044781670
 H          0.056655060963        0.773765895239        4.858240477445
 H          0.244149828680        2.777568176829        3.384038531848
 H          0.063556363262       -1.879751087610        0.767257758720
 H         -0.339164655493        1.644896534846       -0.609784867172
 H         -0.119019305438        2.065569206861       -3.144510123929
 H          0.078474179398       -2.231706773568       -3.705336533403
 H         -0.038272006947       -2.547938718795       -1.174287386608
 C          0.121313599339        1.769126328640        2.968563474816
 C          0.045465024433       -0.011517908440        1.734464285741
 C         -0.015761025639       -0.510778547453        3.137524477749
 C         -0.087199857495       -0.823742991992        0.600397598869
 C         -0.158111514147       -0.497225708070       -0.742589171248
 C         -0.257964141203        0.853284185250       -1.332834038073
 C         -0.163127105691        1.041191796945       -2.717996763211
 C          0.189438530999       -0.053778864192       -3.624525493588
 C          0.139001172859       -1.375880830445       -3.016158525616
 C         -0.088937313975       -1.574062900700       -1.655057860686
 O         -0.057093201145       -1.658050515468        3.565040065937
 O          0.350846933421        0.111290677981       -4.869780776512
