21
Frame 4
 N          0.092111219836        0.690714867281        3.813651409528
 N         -0.021803028578        1.492503104815        1.777151878576
 H          0.046416829757        0.638542710098        4.804807701790
 H          0.182923677681        2.826144826543        3.427179729201
 H         -0.004182453415       -1.868638138028        0.861190631276
 H         -0.061574861110        1.637170373998       -0.516606756310
 H         -0.158598757011        2.024047065916       -3.065209356165
 H          0.190063088343       -2.263853350369       -3.685903740173
 H         -0.038150631990       -2.550521565059       -1.183700229309
 C          0.067306500651        1.802363998029        3.032482236132
 C         -0.097814140283        0.079888281653        1.700972193556
 C         -0.082081742914       -0.480634300605        3.026103795604
 C          0.036955424923       -0.794985438851        0.604493746685
 C         -0.082312374275       -0.494909170037       -0.766390705667
 C         -0.093505690291        0.848738523365       -1.309833687345
 C         -0.065519737973        1.015039720238       -2.679194373585
 C         -0.005194969556       -0.093679860878       -3.695145671215
 C          0.077815352725       -1.407552570435       -3.053189250629
 C          0.092798217711       -1.557867533494       -1.689949143837
 O         -0.175092247015       -1.631957655144        3.519912631405
 O          0.099440322785        0.089446110966       -4.922823039518
