21
Frame 4
 N          0.070071653139        0.710578102788        3.871724069729
 N         -0.067602654635        1.408717193998        1.731956366826
 H          0.160446145639        0.750411444481        4.884116987718
 H          0.010054996466        2.831230459933        3.290351105693
 H         -0.033786151890       -1.865089190395        0.898135808484
 H         -0.158033471125        1.589034814575       -0.530897335835
 H         -0.154805459862        2.059694443133       -3.036283273609
 H         -0.005336478134       -2.220559310601       -3.796501072714
 H         -0.054033991760       -2.608586720348       -1.280633090410
 C         -0.016989890405        1.775329978736        2.977379052696
 C          0.006540388175        0.014768681949        1.731091296522
 C          0.010487531820       -0.470067463208        3.099465464935
 C         -0.064055129157       -0.842987304556        0.603732657875
 C         -0.064075604741       -0.531843293726       -0.787153351885
 C         -0.011865200310        0.845304520328       -1.298469798657
 C          0.017023478460        1.062184582254       -2.666791429390
 C          0.083139618288       -0.041469686538       -3.631592494566
 C         -0.014661603969       -1.400316374737       -3.088478316511
 C         -0.021051591656       -1.619611621870       -1.712292109587
 O         -0.015938444173       -1.569918978843        3.588838499507
 O          0.324471859829        0.123195722646       -4.847699036821
