21
Frame 4
 N         -0.102043209304        0.668554538823        3.916917319602
 N         -0.082356958167        1.450448366243        1.837927253542
 H         -0.219277064508        0.614207857558        4.902262558649
 H         -0.255283094920        2.762421624003        3.418951424739
 H          0.110154108607       -1.754020631275        0.947565675710
 H          0.309651359674        1.667482272111       -0.760538153085
 H          0.150359391124        2.036057772010       -3.123510241145
 H         -0.141283798970       -2.251092562979       -3.689827436517
 H         -0.163133325546       -2.581995560599       -1.349844836810
 C         -0.190360402762        1.750502566274        3.083746819475
 C          0.108603458052        0.083496663466        1.746959598984
 C          0.213790248353       -0.488783069526        3.096579805360
 C          0.061199488723       -0.718579106212        0.635807491293
 C          0.042731580649       -0.470390988799       -0.768318737856
 C          0.149984130263        0.800358837441       -1.381069707743
 C          0.087443880096        1.011703888932       -2.739541436009
 C         -0.063591780696       -0.072073727746       -3.697358006405
 C         -0.138761247533       -1.386335029137       -3.048245588307
 C         -0.123648375545       -1.557738991866       -1.696964091620
 O          0.294111893452       -1.595557437745        3.606160416043
 O         -0.048290281042        0.031332719023       -4.937660127900
