21
Frame 4
 N         -0.253845786064        0.684301829101        3.892232786725
 N          0.023392956907        1.454023762937        1.809815938411
 H         -0.127876716437        0.685784184304        4.921638874852
 H         -0.120654285066        2.812506480125        3.383409634006
 H          0.166629725005       -1.819425476722        0.819483283581
 H          0.268887313357        1.670084871902       -0.665805964227
 H          0.141256159677        2.026641747217       -3.151544542954
 H         -0.264957619090       -2.279400074492       -3.652479522134
 H          0.215659285480       -2.584888900459       -1.259517388755
 C         -0.024880283560        1.779475864037        3.069414865822
 C          0.095970253427        0.027773424611        1.758039381364
 C         -0.062103731059       -0.513158239172        3.121509814398
 C          0.127089675979       -0.777620144835        0.611193672522
 C          0.214883938825       -0.481304648470       -0.769287827695
 C          0.161060626480        0.820731883007       -1.378561505325
 C          0.008061819955        1.041469725270       -2.775269899013
 C         -0.162236719726       -0.081631552297       -3.690920102925
 C         -0.075453908735       -1.327188654250       -3.028851599900
 C          0.107183238339       -1.582820765247       -1.662322451642
 O         -0.113385881821       -1.651633535801        3.555762615655
 O         -0.324680061873        0.096278219235       -4.907940062764
