21
Frame 4
 N         -0.012028598970        0.641344018871        3.918521162992
 N         -0.062574443440        1.418528578146        1.821566112508
 H          0.133766770800        0.710486875357        4.922436662684
 H          0.014896886356        2.763806465159        3.503325677625
 H          0.088110234682       -1.761578127353        0.714160918352
 H         -0.103939799509        1.829189000929       -0.813820298573
 H         -0.153668090369        1.915233837701       -3.300691888190
 H          0.007558314874       -2.335670169343       -3.675753085780
 H         -0.278998364149       -2.485553526345       -1.230115752263
 C         -0.058573263030        1.738451214844        3.081794241054
 C         -0.100310139692        0.005539848240        1.783436997275
 C         -0.017605174697       -0.579358325609        3.140288849213
 C         -0.014523214197       -0.702586983969        0.598033097385
 C          0.099653025401       -0.352262652696       -0.750098524875
 C          0.055225436885        0.933961227798       -1.370149276286
 C          0.095102229439        1.027828032417       -2.760303252204
 C          0.129035183639       -0.117178945282       -3.654219195239
 C          0.091681017204       -1.441603860800       -3.024105386635
 C          0.031981306655       -1.532917548616       -1.678677375210
 O          0.011927275865       -1.729716105687        3.647640263630
 O          0.043283406254        0.054057146239       -4.873269947464
