21
Frame 4
 N          0.059018155400        0.618669610959        3.986726173885
 N          0.184167156235        1.488045843819        1.894582378708
 H         -0.284515904543        0.611314454045        4.934841439848
 H          0.089969187864        2.708299718297        3.648687216759
 H          0.101223093933       -1.794145533539        0.746671235824
 H          0.041298137256        1.810779598430       -0.818573901928
 H         -0.218687697319        2.009293488807       -3.269708394800
 H          0.040146663815       -2.396353159933       -3.666999308424
 H          0.103988877610       -2.558437820752       -1.207811507444
 C          0.160969947363        1.771362500853        3.179057483824
 C          0.081027716353        0.093051940733        1.773896213234
 C         -0.116385303038       -0.486153043341        3.113855794018
 C          0.076280770492       -0.683177183231        0.587544233045
 C         -0.008557328527       -0.360354177461       -0.804146212404
 C          0.037233156627        0.903238951959       -1.446051245622
 C         -0.076475429199        1.004900422508       -2.801081576420
 C         -0.082264747761       -0.162695881015       -3.706094017975
 C          0.081256675639       -1.453209224012       -3.052009424954
 C          0.057043038539       -1.532643899489       -1.699153038090
 O         -0.262798928906       -1.613685409284        3.568985027735
 O         -0.063937237831        0.021898801648       -4.963218568819
