21
Frame 4
 N          0.052061748478        0.695809392083        3.894214476941
 N         -0.219836462927        1.509845199256        1.813959419034
 H         -0.089416409530        0.666567931826        4.870331536345
 H         -0.120919805189        2.848773483018        3.437195885395
 H          0.116755279911       -1.782293949019        0.930515925056
 H          0.111929838749        1.650208617133       -0.638129332412
 H          0.227806647763        2.031119307254       -3.037910391282
 H         -0.234801172786       -2.205586566882       -3.800833008416
 H         -0.002568407049       -2.661461371096       -1.315931616658
 C         -0.184760428550        1.802475187073        3.054745094695
 C         -0.081389987720        0.097508465644        1.708614205407
 C          0.102537534962       -0.466027581764        3.054079633042
 C         -0.035051636931       -0.735034735073        0.587663174825
 C         -0.044722293386       -0.529267231102       -0.778898238020
 C          0.119590870749        0.798685585287       -1.316383521202
 C          0.136787058400        1.012870260903       -2.653816868223
 C         -0.019997862593       -0.085967762209       -3.619324583399
 C         -0.048435282998       -1.423248805657       -3.022439061576
 C         -0.084801451764       -1.613985626789       -1.701538311426
 O          0.298025493061       -1.655196139276        3.430821318636
 O          0.001206729351        0.044206339388       -4.896935736760
