21
Frame 4
 N          0.055873519404        0.668999263720        3.860675271890
 N         -0.208725098593        1.470831363386        1.781380156556
 H          0.204800514970        0.648522669573        4.864447127692
 H         -0.356099279511        2.826277048110        3.394849311342
 H          0.188429782952       -1.795609199216        0.874583403418
 H          0.083635931414        1.688251380586       -0.686232493480
 H          0.299365314476        2.033816343097       -3.115942315376
 H         -0.118081394774       -2.273238611578       -3.714758156870
 H         -0.269090292695       -2.559538157645       -1.275167376014
 C         -0.174611033871        1.774650459656        3.060495685136
 C         -0.076693082092        0.061591890313        1.712388326458
 C          0.103633201666       -0.498557187816        3.067476534524
 C         -0.000538637140       -0.757889536893        0.622104828545
 C         -0.065594152862       -0.490159200008       -0.741050269602
 C          0.004537651481        0.806186425609       -1.331545622121
 C          0.100860796344        1.010509252384       -2.684620177581
 C          0.075370884025       -0.104131160832       -3.629641716385
 C         -0.080750766474       -1.404237605814       -3.035112548688
 C         -0.129231269930       -1.567534407500       -1.658894244807
 O          0.265640277833       -1.646913434985        3.518357163876
 O          0.097267133375        0.108172405853       -4.883792888512
