21
Frame 4
 N         -0.131325823893        0.653160309257        3.887531365512
 N          0.287453815887        1.561225532662        1.915109357737
 H         -0.462959296948        0.518056803007        4.851578154658
 H          0.324170884852        2.781646102372        3.582745903539
 H         -0.054718510247       -1.757072783789        0.862699288162
 H          0.155067729799        1.716173780895       -0.719969121397
 H         -0.313582186935        2.004885880273       -3.162998266562
 H          0.180217408877       -2.236751497083       -3.711788057404
 H          0.189347253342       -2.604439781341       -1.226946360232
 C          0.125917133560        1.800612084532        3.170609606434
 C          0.130739570327        0.153739528559        1.725744439417
 C         -0.097558577343       -0.493422051157        3.011751256233
 C          0.082166756108       -0.653640695211        0.584524705410
 C          0.089159065328       -0.438485806995       -0.786912342739
 C          0.086160030772        0.851519811370       -1.396234200361
 C         -0.110655382809        1.022601867651       -2.756449498152
 C         -0.120517661598       -0.151977232514       -3.650973590777
 C          0.146543522849       -1.394562778265       -3.018920810759
 C          0.076667025486       -1.588519741993       -1.673681539668
 O         -0.258238839589       -1.639414786587        3.425881580334
 O         -0.324053917826       -0.105334545644       -4.913301869385
