21
Frame 4
 N          0.120114688038        0.700888921834        3.848525787626
 N         -0.233181538269        1.424178468069        1.694550876036
 H          0.023548958156        0.773126194461        4.894776020794
 H         -0.028515481209        2.802825044507        3.262774712692
 H          0.153684435113       -1.846327677101        0.894596818210
 H          0.188151175436        1.688352285092       -0.623929663102
 H          0.147350254111        2.012089002997       -3.048965360591
 H         -0.161597342348       -2.182229895366       -3.762379412929
 H          0.108026407883       -2.626140946323       -1.285621639543
 C         -0.097694582626        1.779621244056        2.914124840731
 C         -0.206696880508       -0.011375087673        1.718257012608
 C         -0.036576569772       -0.519003507713        3.081465595740
 C         -0.009135507629       -0.801844096898        0.619397915070
 C          0.085025090191       -0.516857777373       -0.752835934317
 C          0.046296140193        0.811893023905       -1.274233117298
 C          0.094594535218        1.025899498747       -2.626903608455
 C         -0.069804402811       -0.022123203533       -3.631297457580
 C         -0.017229232206       -1.400326551948       -3.023732083294
 C          0.149361360692       -1.584989838936       -1.685577227792
 O         -0.064309162200       -1.660026289755        3.620445422921
 O         -0.191412345452        0.152371188951       -4.833439497527
