21
Frame 4
 N          0.247277775698        0.647232627016        3.859133677031
 N          0.050890412281        1.466906785743        1.788598888164
 H          0.110440095854        0.745031833307        4.835445726206
 H          0.306353595823        2.769878981889        3.414101386564
 H         -0.276488386178       -1.829286096074        0.742824940220
 H         -0.377296062804        1.658758558963       -0.651806654568
 H         -0.197641120397        2.006987002538       -3.159860454465
 H          0.259314194239       -2.316183056155       -3.579815081162
 H          0.210539098100       -2.617256989405       -1.266046695469
 C          0.156799577702        1.788327018531        3.030365033002
 C         -0.101769847309        0.037979722202        1.716402144001
 C         -0.095570831143       -0.489564109986        3.102921475679
 C         -0.231498021539       -0.768517799591        0.583042876637
 C         -0.124382353307       -0.490127955334       -0.781476570275
 C         -0.221632487749        0.855274244308       -1.362660557390
 C         -0.021775041703        1.066380393355       -2.689859847676
 C          0.112828414624       -0.027468305084       -3.610172153896
 C          0.206467613585       -1.386208212419       -3.001657406253
 C          0.023701626026       -1.593178312995       -1.661759313081
 O         -0.198508088327       -1.662684235927        3.533881791859
 O          0.161949836522        0.137717905118       -4.841603205127
