21
Frame 4
 N         -0.039111032339        0.758054507888        3.853877883347
 N          0.050095357260        1.421234978817        1.705989960407
 H          0.161570841141        0.822227634413        4.833164192330
 H          0.235235609997        2.738361348260        3.349675796682
 H         -0.121063174914       -1.907096989698        0.883488327163
 H         -0.103158563984        1.661750033493       -0.640628415278
 H         -0.204004540558        2.039308277784       -3.033321347022
 H          0.268632295273       -2.239305555588       -3.779453018729
 H         -0.033186248595       -2.613576639711       -1.354095681179
 C         -0.007295689338        1.770943651052        2.958969125576
 C         -0.085871038195       -0.000497412166        1.754660496075
 C         -0.117857495346       -0.478208857813        3.139308322047
 C         -0.035279127486       -0.853679199332        0.632436696494
 C          0.063701254161       -0.539512804003       -0.739393022982
 C         -0.007093204842        0.803471570275       -1.288021403300
 C         -0.018898645052        1.040782119632       -2.639311592918
 C          0.019995127601       -0.031270260319       -3.653497514202
 C          0.188251033044       -1.389406090054       -3.104116367018
 C          0.026031579324       -1.596349792727       -1.734986890119
 O         -0.162028593545       -1.592844730006        3.729674629185
 O         -0.078665743606        0.185614209805       -4.874420176560
