21
Frame 4
 N         -0.154473554284        0.643242798648        3.861229396193
 N          0.108346492498        1.529189076881        1.786693309317
 H         -0.057750478263        0.736837133564        4.902673114189
 H         -0.028912463613        2.811777847366        3.556170527084
 H         -0.037075096741       -1.782980808975        0.895020384773
 H          0.171264571548        1.696154075178       -0.737318299141
 H         -0.109569953176        2.034907041180       -3.072292735585
 H          0.091261889257       -2.269011181673       -3.715420368896
 H         -0.068313549854       -2.597203741713       -1.245807348965
 C         -0.032078153809        1.764771981835        3.064554440854
 C          0.116508293963        0.091047856549        1.732260691828
 C         -0.056857382652       -0.524878671964        3.055334020931
 C          0.107598476685       -0.724866271429        0.614915962076
 C          0.070673830832       -0.466707575727       -0.771581694575
 C          0.128461361321        0.808162587168       -1.362797713436
 C         -0.021344467854        1.005911775551       -2.689391153555
 C         -0.093877522386       -0.089295307433       -3.658530461681
 C          0.070263141909       -1.414755131938       -3.044333633729
 C          0.031855507450       -1.565602123117       -1.677594237724
 O         -0.060180734353       -1.701675752515        3.407245799860
 O         -0.175800208479        0.014974392565       -4.901029999820
