21
Frame 4
 N         -0.146766497326        0.750796404901        3.902374961782
 N          0.213712122792        1.432797169516        1.821324177376
 H          0.047630377951        0.643145862112        4.858695442459
 H          0.357920127956        2.832452641035        3.429110189272
 H         -0.154675244928       -1.791872562812        0.859401300446
 H          0.021719035929        1.578480532138       -0.642338987519
 H         -0.200560407889        2.055456159625       -3.045461138657
 H          0.373938469027       -2.238862234511       -3.751078607136
 H          0.279345155146       -2.673370182108       -1.341383078071
 C          0.171358267986        1.811855641266        3.050638584069
 C         -0.046292020051        0.042553265011        1.778168292627
 C         -0.201378249968       -0.426200383383        3.123481276115
 C         -0.145506285915       -0.731822422146        0.616926469940
 C         -0.053288459178       -0.545776749197       -0.788332182213
 C         -0.059440580030        0.796824417448       -1.377033668317
 C         -0.171513513485        1.038135501626       -2.691811426034
 C         -0.066738755505       -0.084022353520       -3.692242186300
 C          0.173198773360       -1.402446848560       -3.057431864239
 C          0.178468702399       -1.601161478780       -1.705742651020
 O         -0.327917213320       -1.601665279968        3.550311808252
 O         -0.243213804951        0.114702900307       -4.897576712834
