21
Frame 4
 N          0.218973159106        0.713366197967        3.832280611036
 N         -0.308859196731        1.467290946253        1.848450277502
 H          0.317504641707        0.739516107732        4.836494856799
 H          0.011673456252        2.817234507624        3.479838504136
 H         -0.260479132866       -1.800653911535        0.804014023405
 H         -0.071643714764        1.604136311927       -0.574495671889
 H         -0.001785897250        2.011532260063       -3.121476707854
 H          0.128482102888       -2.219867634287       -3.804735624690
 H         -0.177276695820       -2.584079071083       -1.239162605364
 C         -0.060511094873        1.814019839211        3.077279287528
 C         -0.247754953177        0.063155514763        1.733426320420
 C          0.067016499409       -0.489348437281        3.052882151270
 C         -0.209278928174       -0.743543521046        0.572254950098
 C         -0.157882767457       -0.512668470823       -0.786947632922
 C         -0.169885999509        0.815784176286       -1.305572220217
 C          0.037847405977        1.000808032478       -2.648232900941
 C          0.230086342991       -0.091895763834       -3.585119598026
 C          0.116302500676       -1.425296599833       -3.067168026465
 C         -0.037092974203       -1.602691371063       -1.719730815103
 O          0.291597605184       -1.627728996399        3.437277772856
 O          0.282967640634        0.050929882881       -4.821556951579
