21
Frame 4
 N         -0.030440678898        0.736691624239        3.815228747498
 N          0.344460559109        1.364880037001        1.700806954619
 H         -0.113533288572        0.819513718791        4.822923555732
 H          0.030529810118        2.788936808147        3.191632364809
 H         -0.081652940595       -1.890696080086        0.881562005221
 H         -0.213357455599        1.618901689599       -0.546853091873
 H         -0.171304051504        2.028693053472       -2.906591621972
 H          0.041881748643       -2.183211560389       -3.847802801072
 H          0.122562330291       -2.562429766743       -1.362905669641
 C          0.197424480542        1.763870548414        2.923185572751
 C          0.142301974295       -0.012722267065        1.721675005755
 C         -0.080712928567       -0.484776528608        3.138229290380
 C          0.040826042911       -0.853344587719        0.649414832846
 C          0.072275089276       -0.517433389873       -0.715107216769
 C         -0.091196427564        0.798193273424       -1.281591214795
 C         -0.144938051152        0.979532116828       -2.638316405308
 C         -0.020890794502       -0.079648166091       -3.607744412191
 C          0.056272863250       -1.358694784940       -3.085702735292
 C          0.084107997498       -1.572425900922       -1.739748725721
 O         -0.282069379117       -1.563586531293        3.708280950039
 O          0.097453100138        0.179756693816       -4.820575385015
