21
Frame 4
 N          0.004588001731        0.676625114623        3.843513716868
 N         -0.135236953946        1.437405336663        1.694082396432
 H         -0.186699603919        0.668298257889        4.808338212098
 H         -0.411214507876        2.707725681623        3.364731553621
 H          0.211167803392       -1.812767229842        0.891855455765
 H          0.367258495725        1.657150811726       -0.604411293939
 H          0.181757252882        2.047132301576       -3.066867156609
 H         -0.372578642994       -2.267569097908       -3.695297788177
 H         -0.088160231076       -2.531960099742       -1.178183703019
 C         -0.158814176665        1.730072524523        2.966518233538
 C          0.134704794999        0.064919387620        1.724710526690
 C          0.045194352518       -0.446571507614        3.068647311986
 C          0.209138055758       -0.758029925665        0.635563506068
 C          0.279236270259       -0.488695635689       -0.770898141665
 C          0.249784293218        0.830273885739       -1.318776700912
 C          0.116155212303        1.032766605811       -2.665340046972
 C         -0.128901418540       -0.054068936358       -3.642208927900
 C         -0.078789320979       -1.395048518828       -3.045039416485
 C          0.028382406784       -1.596301883541       -1.661644571525
 O          0.024249023020       -1.605930042915        3.529769747822
 O         -0.291221106594        0.104572970309       -4.879062913684
