21
Frame 4
 N         -0.131194187446        0.684030591131        3.888948879759
 N         -0.032691192461        1.522757541558        1.818771981557
 H         -0.215320067534        0.607937295234        4.892887580770
 H          0.073329463542        2.773571715720        3.571570678364
 H          0.085128683546       -1.742747528091        0.800643821151
 H          0.320012732866        1.632239332784       -0.672970900294
 H          0.079945710602        2.026675325313       -3.159088006521
 H          0.115826223133       -2.259419607562       -3.738757656052
 H          0.133177526268       -2.614517680559       -1.264979576111
 C         -0.050448337720        1.783067302043        3.096849426455
 C          0.041236539963        0.108718240623        1.726079252427
 C         -0.084894182989       -0.458673026418        3.073828534983
 C          0.123214268529       -0.698029349188        0.593503093861
 C          0.106300581132       -0.451597115664       -0.786106179680
 C          0.208826681738        0.845567133536       -1.417746199826
 C          0.052358403966        1.016819836475       -2.753220780834
 C         -0.239192476994       -0.127305407991       -3.648910177171
 C          0.003463319004       -1.433974805604       -3.022516178755
 C          0.102560584305       -1.615875636452       -1.670886081753
 O         -0.151348666155       -1.638250352603        3.500006099524
 O         -0.540291607296        0.039006195714       -4.827907611853
