21
Frame 4
 N          0.101648575571        0.694944961917        3.852484656177
 N         -0.136542184040        1.514810198196        1.715868414414
 H          0.319504309017        0.708156778265        4.832148439003
 H          0.184876824549        2.781576976761        3.413390395514
 H          0.040030835588       -1.785088342039        0.961735849267
 H         -0.188920985739        1.561764971057       -0.482452515984
 H         -0.178109767305        2.054974588822       -3.077232210878
 H          0.073416102832       -2.259667080926       -3.791391598376
 H         -0.056538775982       -2.639925267356       -1.385085083935
 C          0.057909844421        1.778113739570        3.010697490390
 C         -0.164963304353        0.081798381923        1.681387022155
 C         -0.078030686947       -0.440181579494        3.091312872979
 C         -0.106819729229       -0.778246471514        0.590179683697
 C         -0.098733467750       -0.567718438482       -0.792500233408
 C         -0.150699297302        0.786751982627       -1.294240388817
 C         -0.088574568518        1.031057011599       -2.664831661800
 C          0.149621902810       -0.040806706840       -3.613603876370
 C          0.196943085795       -1.436250302829       -3.070603067340
 C          0.033834983450       -1.659016904099       -1.728944921693
 O         -0.188760247159       -1.559253331236        3.610003560996
 O          0.278906550292        0.172204834080       -4.858322825991
