21
Frame 4
 N         -0.017473875617        0.734865366898        3.850947237956
 N          0.028718422275        1.387637423388        1.713949245581
 H         -0.064445226008        0.743678119581        4.870892547088
 H          0.085104741074        2.873739830894        3.222948853317
 H         -0.089674749996       -1.891311439298        0.905266153678
 H          0.028259722658        1.607284819527       -0.522117899521
 H         -0.075139066468        2.047225357652       -3.000495482052
 H         -0.007319651441       -2.209407793502       -3.792014497656
 H          0.135873089411       -2.607400724959       -1.332199994828
 C          0.071106366945        1.814383756439        2.920670227242
 C          0.013486538531       -0.009726769971        1.741895947071
 C         -0.064643766383       -0.514926079573        3.161998976241
 C          0.008913243203       -0.845919354385        0.636917522859
 C          0.065764878603       -0.530531348841       -0.772385310025
 C          0.031746002270        0.814022294491       -1.272702017606
 C         -0.083881648149        1.011768013884       -2.656350216753
 C         -0.009002502309       -0.054437347098       -3.640982582245
 C          0.099961971816       -1.374468447388       -3.110107547720
 C          0.143895141563       -1.595297334653       -1.745114607743
 O         -0.166282434722       -1.592742346793        3.684081574550
 O         -0.134967197257        0.191564003708       -4.865098129436
