21
Frame 4
 N          0.249409871647        0.686546834738        3.771739983869
 N         -0.172657778754        1.418799155986        1.697429402211
 H          0.394037767181        0.755264605936        4.732106726422
 H         -0.091763008035        2.736308579348        3.316043122938
 H         -0.213258540400       -1.830799039024        0.885898842716
 H          0.019338043183        1.603852194061       -0.525459515526
 H         -0.019723580992        2.009543185309       -3.092047590687
 H          0.277371101931       -2.287531892918       -3.652476919067
 H         -0.031540318392       -2.554245258632       -1.237194263105
 C         -0.059227973501        1.740232985938        2.921495447757
 C         -0.036333147008        0.027012861818        1.698034660745
 C          0.058944860422       -0.498277753937        3.042242489121
 C         -0.210288970234       -0.794395137802        0.579541344842
 C         -0.216055322759       -0.496445565282       -0.750474298056
 C         -0.140114480070        0.841576981282       -1.294012936468
 C         -0.028040534946        1.031225555818       -2.636316427195
 C          0.071628688795       -0.031741502127       -3.570474534145
 C          0.072489576523       -1.394442377111       -3.029661552134
 C         -0.045011439741       -1.557682722045       -1.665833545642
 O         -0.079169298902       -1.619372875916        3.596388008641
 O          0.199964484053        0.214571184561       -4.786968447237
