21
Frame 4
 N         -0.052435013256        0.667634369993        3.834756573993
 N          0.152665290808        1.511453061350        1.743159685036
 H         -0.018726503680        0.691035516149        4.885088818561
 H          0.196196367130        2.814325235048        3.367070149082
 H         -0.176572513419       -1.849070100665        0.954914513376
 H         -0.225497861606        1.655362731527       -0.583449139361
 H          0.008533826378        2.058791097124       -3.050788394774
 H          0.141473817726       -2.257408286101       -3.683480319658
 H          0.268070037813       -2.575812297655       -1.230355501121
 C          0.115687954839        1.825078224922        3.009245374443
 C         -0.032121235184        0.048471428171        1.697487085599
 C         -0.056465960283       -0.486667312899        3.060460839607
 C         -0.089196638873       -0.817919342269        0.616499620973
 C         -0.082346701470       -0.516351349396       -0.783800326939
 C         -0.065550235574        0.823789637053       -1.296831358598
 C         -0.015442526042        1.045149757291       -2.655398298765
 C          0.023109519468       -0.056310959618       -3.654976156178
 C          0.033967536095       -1.381749056839       -3.073939496540
 C          0.117257415396       -1.624014809609       -1.723090850036
 O         -0.126935487541       -1.654906805330        3.454038106578
 O         -0.115671088725        0.079119261756       -4.886610925277
