21
Frame 4
 N         -0.038225704509        0.608126049502        3.893414105193
 N         -0.041146216089        1.575020913907        1.875391678481
 H          0.029757559728        0.473628761678        4.902061215019
 H         -0.011404462973        2.711015032232        3.662357979718
 H         -0.079460490892       -1.718908449681        0.839550460297
 H          0.079600208962        1.785249845142       -0.745098255753
 H         -0.002439113473        1.991086994891       -3.288481526165
 H          0.024299300872       -2.359261707835       -3.592346824180
 H          0.000404659657       -2.570516155132       -1.165218513192
 C          0.002318932756        1.765599818032        3.140393078969
 C         -0.130451637476        0.171591352453        1.697586730270
 C         -0.065312090212       -0.487497247443        2.994772305174
 C         -0.080027780995       -0.637849191943        0.585299715712
 C          0.085223840573       -0.397012220254       -0.831979377142
 C          0.100096156791        0.913101181070       -1.411637517627
 C          0.048661641358        1.017076857534       -2.789049072207
 C         -0.039579314084       -0.143730994241       -3.653288438841
 C          0.077120186707       -1.438328816046       -2.976680547489
 C          0.077665785267       -1.562275094018       -1.625592100387
 O          0.102105936236       -1.657668031742        3.394821809635
 O         -0.139207398204       -0.038448898107       -4.906276905485
