21
Frame 4
 N         -0.050023452880        0.678549691860        3.881202076287
 N         -0.218266013596        1.410849922495        1.816795047045
 H         -0.092417681758        0.570298633726        4.866627750510
 H         -0.273084596883        2.811980996865        3.484857904450
 H          0.292613268412       -1.784866808250        0.837606694255
 H          0.214195450816        1.716338820899       -0.727832648677
 H          0.355409904673        2.000410939680       -3.213051782720
 H         -0.200025971864       -2.252681465491       -3.681735719484
 H         -0.144277377222       -2.537354296245       -1.177431419761
 C         -0.207103980341        1.782504916459        3.065931495302
 C         -0.051242792561        0.001740409774        1.770307962644
 C          0.158239178641       -0.441027320340        3.112095592775
 C          0.039851834524       -0.766878020456        0.601609709843
 C          0.011306139882       -0.432783209336       -0.771782153337
 C          0.119378880430        0.862228873827       -1.369679803789
 C          0.153914043259        0.994052532571       -2.725034427883
 C         -0.047050527725       -0.121812451927       -3.667521743823
 C         -0.203209986567       -1.412648884673       -3.013390838183
 C         -0.136450444640       -1.530004536388       -1.672950931153
 O          0.331127779217       -1.626153717372        3.499680373228
 O         -0.052883653815        0.077254972323       -4.916303137529
