21
Frame 4
 N         -0.117518093763        0.723102553511        3.830941142495
 N          0.160182143628        1.445263313348        1.721792427891
 H         -0.044998629210        0.775336056442        4.862527914899
 H          0.144553734157        2.834916537220        3.307131355478
 H         -0.190467143598       -1.797002287431        1.001872306944
 H          0.026441886697        1.560550424084       -0.576629137972
 H         -0.225159429275        2.065284657707       -3.015806138254
 H          0.199066231368       -2.264784277995       -3.715599651126
 H          0.021787725582       -2.655306833010       -1.310254434288
 C          0.076487588863        1.789718263031        2.965486648990
 C          0.048002333822        0.035420063376        1.712626353958
 C         -0.027304248324       -0.516305442328        3.085005560222
 C         -0.035703648120       -0.792149132860        0.638905318368
 C         -0.045164854393       -0.536893734417       -0.733607456312
 C          0.006991570417        0.773445151815       -1.269930430256
 C         -0.086985666942        1.018771591776       -2.651331509990
 C          0.017563891593       -0.030904594117       -3.695634214237
 C          0.157447927933       -1.379332680712       -3.103042597427
 C          0.039574039532       -1.629764486285       -1.718908937166
 O         -0.070698869549       -1.664613651603        3.565481176812
 O         -0.054098490420        0.245248508448       -4.901025699030
