21
Frame 4
 N         -0.141167035695        0.676302863818        3.934805672329
 N          0.292112353893        1.426627067580        1.828826076748
 H          0.071604595095        0.700170297815        4.914382255725
 H          0.195619691399        2.779490303425        3.432154898839
 H         -0.041362670172       -1.831474183600        0.834789200010
 H         -0.053937286099        1.745957346952       -0.683877231990
 H         -0.335303093216        1.965054349327       -3.181077219203
 H          0.278712676309       -2.259964495062       -3.742833412203
 H         -0.034535570677       -2.524867561877       -1.300270744212
 C          0.089744808660        1.771292657504        3.064263538760
 C          0.056800623338        0.031596791393        1.746507600261
 C         -0.131297615490       -0.484525110529        3.133263504413
 C          0.011969756418       -0.738222227917        0.624786941959
 C         -0.020378266147       -0.476868308324       -0.749743548666
 C         -0.069269352549        0.847224329085       -1.323607782828
 C         -0.171684072539        1.001598032150       -2.699879853107
 C          0.084389638500       -0.117272334126       -3.698479355209
 C          0.123888987303       -1.418391315565       -3.091357584013
 C          0.037794494455       -1.543867718601       -1.731334106363
 O         -0.271148841870       -1.624525475431        3.612377592646
 O          0.027446179085        0.074664691984       -4.923696443895
