21
Frame 4
 N         -0.153510167508        0.711078381150        3.825679813456
 N          0.044797579008        1.439587955642        1.688504756782
 H         -0.209112923503        0.867592025637        4.841882640510
 H          0.034009790582        2.777676853667        3.342002822209
 H          0.173619454557       -1.939978385498        0.933587133104
 H         -0.009086771316        1.581433635404       -0.604803072244
 H          0.059648231706        2.083235358334       -3.022407625915
 H         -0.123894703617       -2.229201779494       -3.703777183630
 H          0.001611688562       -2.652425382500       -1.425356314879
 C         -0.090697927539        1.814181577036        2.923879910273
 C          0.108227881177        0.019243578826        1.715526515949
 C         -0.022422445905       -0.486953804598        3.092025706088
 C          0.133980732959       -0.919683837750        0.633053013888
 C          0.025932636345       -0.552512222535       -0.763944599717
 C          0.070277658108        0.795951139160       -1.284570743583
 C          0.099945484617        1.055696853114       -2.608423704972
 C         -0.024410217964       -0.004657858694       -3.617271704380
 C         -0.116834392469       -1.338692454256       -3.026745801650
 C         -0.002980084290       -1.605171556600       -1.723750548774
 O          0.083483096976       -1.596545709073        3.647462379244
 O         -0.082584600485        0.180145633029       -4.862553391760
