21
Frame 4
 N         -0.032999719929        0.684208708727        3.895909271943
 N          0.032955604853        1.582386514777        1.824858811568
 H         -0.029001023914        0.575917413739        4.899753210521
 H         -0.078361877128        2.772982828466        3.477206711086
 H          0.129228522848       -1.736463943490        1.037138919774
 H          0.134675573542        1.645618330912       -0.608786696643
 H         -0.027223322597        2.010861850899       -3.136224826259
 H         -0.116308124084       -2.346268014406       -3.725505464341
 H          0.153364839291       -2.597400638790       -1.322390831658
 C          0.016617994915        1.805104909368        3.102593133877
 C          0.072711033215        0.125913740202        1.722432580933
 C         -0.065235251226       -0.466239431699        3.041531999198
 C          0.067123069154       -0.721740385810        0.599660096666
 C          0.150068229506       -0.491404076013       -0.785559801691
 C          0.140287080417        0.821129088859       -1.353863680859
 C         -0.066605272277        0.995999971490       -2.691729087436
 C         -0.074919535253       -0.078798380649       -3.669108034656
 C          0.015243884162       -1.430033966361       -3.089660267707
 C          0.081082127179       -1.596736271106       -1.719809762721
 O         -0.309574342516       -1.636838335433        3.407856739016
 O         -0.193129490156        0.081800086317       -4.906303020612
