21
Frame 4
 N         -0.208209197419        0.715137522812        3.900524789780
 N          0.124410878305        1.434687634800        1.764473106995
 H         -0.177758541933        0.565290136244        4.886366298512
 H          0.007864880049        2.815434760843        3.377771226645
 H          0.188443650105       -1.799051124412        0.876851004959
 H          0.095206814176        1.662267767221       -0.664279370920
 H         -0.108018026300        2.030089412676       -3.118218064115
 H         -0.140412989254       -2.242803686611       -3.724483478880
 H         -0.010457665421       -2.627658523630       -1.277780021214
 C          0.040077508065        1.805521653457        3.009932387096
 C          0.061853285488        0.057757628156        1.723081145402
 C         -0.112500618091       -0.460028328252        3.075835688364
 C          0.186922858522       -0.751247401153        0.615072441667
 C          0.186056727227       -0.482305163059       -0.757199088699
 C          0.084296158038        0.804072929920       -1.342745991347
 C          0.057313356795        1.027147326836       -2.700693039356
 C         -0.083175405872       -0.089527388980       -3.630119602032
 C          0.037961513637       -1.412846473828       -3.018020033104
 C          0.064721464626       -1.601938181130       -1.692726007090
 O         -0.112191242911       -1.592600439419        3.557421541341
 O         -0.182405407831        0.142599937510       -4.861064934004
