21
Frame 4
 N          0.094289599298        0.699312202216        3.867809926658
 N         -0.200635809518        1.483104667941        1.788219723409
 H          0.174170813776        0.723718713787        4.873085624465
 H         -0.108049304157        2.754547876548        3.500207739952
 H         -0.097072483546       -1.835406164656        0.888526394985
 H          0.008755896869        1.687465718647       -0.644046804693
 H          0.119474394498        2.041726032942       -3.138208411534
 H          0.090287859382       -2.288860888999       -3.670968881413
 H         -0.145347902167       -2.533682883655       -1.284654801546
 C         -0.127914225123        1.771007559335        3.041369126732
 C         -0.052006942610        0.052013734382        1.739185120694
 C          0.071099220244       -0.501395075520        3.096294105531
 C         -0.105334865044       -0.768263863898        0.639714936131
 C         -0.099189129557       -0.509341840975       -0.748218118144
 C         -0.035593879036        0.850711215881       -1.340836766280
 C          0.003305261407        1.019136866273       -2.706280778778
 C          0.054687223105       -0.116881998286       -3.707876336434
 C         -0.112039876823       -1.413469654429       -3.069401395408
 C         -0.092035978486       -1.526670889927       -1.690707802310
 O          0.290810206160       -1.656257922715        3.496378521675
 O          0.268339921330        0.067486595107       -4.929591123691
