21
Frame 4
 N         -0.295512009686        0.652905308668        3.856317396765
 N          0.125182781950        1.418494498924        1.768038163251
 H         -0.287904831845        0.713300101460        4.904684741644
 H         -0.057871609246        2.791515315252        3.397741491065
 H          0.271550624444       -1.801322318213        0.864450188001
 H          0.113517609551        1.740454563168       -0.684889883084
 H         -0.068057548688        2.025183864640       -3.060067344382
 H         -0.281858815827       -2.291742652452       -3.690882376258
 H         -0.135713766519       -2.533679830913       -1.249393880734
 C         -0.075198119812        1.772191571569        3.012147832133
 C          0.153612631622        0.037328999448        1.741996058639
 C          0.004602941336       -0.516323322057        3.079155446470
 C          0.275763878832       -0.743162202583        0.606003854057
 C          0.179345488601       -0.424934842611       -0.768747345562
 C          0.133796935542        0.888444853782       -1.367146109206
 C          0.122195230041        0.997794722072       -2.717880603186
 C         -0.070260635570       -0.158922136989       -3.624127811717
 C         -0.066948852435       -1.452898709716       -3.040899182180
 C          0.041918493856       -1.553395387575       -1.695746062408
 O          0.027739171747       -1.680672973819        3.502208343237
 O         -0.109899597892        0.119440577944       -4.832962916545
