21
Frame 4
 N         -0.014360573375        0.700046461438        3.872524001973
 N         -0.086882838958        1.481057056150        1.755325244893
 H         -0.064038804947        0.653676908665        4.894422046497
 H         -0.169307057705        2.808147859923        3.395961104862
 H         -0.009620405082       -1.834260628207        0.857714273549
 H          0.142589970236        1.681901294067       -0.621235610885
 H          0.162302755966        1.981935808363       -3.097234855778
 H         -0.064496884888       -2.231833000289       -3.799897907339
 H         -0.045045680426       -2.638557480869       -1.288236432790
 C         -0.115643038344        1.821823198571        3.043798219190
 C          0.005034410345        0.042702292821        1.725427260540
 C         -0.009475784769       -0.467301866761        3.098415889696
 C          0.070491362415       -0.765614308784        0.570080204586
 C          0.100655237079       -0.480283619691       -0.779627580458
 C          0.150123309624        0.849083260390       -1.325484331597
 C          0.126008193884        1.027370096447       -2.672118388642
 C         -0.099992913393       -0.060923398823       -3.613782002803
 C         -0.031722886909       -1.445820091911       -3.043180379318
 C          0.004897707213       -1.623050701882       -1.682242463368
 O          0.158177291402       -1.615393383554        3.560689039150
 O         -0.209693369368        0.115294243936       -4.851317331957
