21
Frame 4
 N         -0.091444210855        0.686603961116        3.905393349185
 N          0.150653535859        1.453006625117        1.752911075384
 H         -0.151000416405        0.702448252996        4.901193008035
 H          0.165553852768        2.788119104011        3.380587362970
 H         -0.105883627850       -1.823964733951        0.929833802857
 H         -0.087072265620        1.691376716838       -0.673622893229
 H         -0.147657950799        2.027656746271       -3.070066823912
 H          0.093807891368       -2.285862169114       -3.670918189721
 H          0.085674289758       -2.555478222376       -1.316402682613
 C          0.143587541107        1.748204118464        3.045764028757
 C          0.008154705090        0.050766338551        1.692789819776
 C         -0.066198182889       -0.488359792040        3.072271597295
 C          0.060058635291       -0.811024515908        0.604275531039
 C          0.039771200676       -0.484983865957       -0.781199594122
 C         -0.040946996853        0.830963562565       -1.334890754775
 C         -0.017387277643        1.000955110807       -2.710440357653
 C         -0.011997349013       -0.078408378991       -3.653378496228
 C          0.123940564932       -1.394485406210       -3.056383942107
 C          0.063189275555       -1.553297696292       -1.711876965573
 O         -0.111905099835       -1.622566063198        3.581390334434
 O         -0.102898114640        0.118330307302       -4.887229209799
