21
Frame 4
 N          0.065235789195        0.653374691488        3.892990665147
 N          0.052587841646        1.482711010201        1.809763690353
 H         -0.121023254649        0.703065149243        4.922021653239
 H          0.217748138359        2.785123138137        3.483778211755
 H         -0.263076588462       -1.809859277473        0.851749571440
 H         -0.245606294658        1.728095176443       -0.695314131429
 H         -0.122375771607        1.991551804228       -3.186982741430
 H          0.055680515662       -2.248597838275       -3.716553463629
 H          0.113127309817       -2.588144310563       -1.229228040558
 C          0.090518109686        1.785073393621        3.110216740831
 C         -0.000475951471        0.064674092361        1.700889954023
 C         -0.058890968779       -0.492059566825        3.077586183087
 C         -0.102452495867       -0.756907799470        0.561477145154
 C          0.066674854163       -0.461692993642       -0.750370764087
 C         -0.099268296434        0.853782081821       -1.371832634352
 C          0.008646232351        1.012898733462       -2.721547053334
 C          0.090116834205       -0.071475970094       -3.654652272976
 C          0.071627502600       -1.425516840986       -3.013044818773
 C          0.100960775859       -1.603415050007       -1.652267169522
 O          0.036190234094       -1.667307500594        3.462150411081
 O          0.044055484288        0.064627876926       -4.880831136019
