21
Frame 4
 N          0.058295439476        0.735030028374        3.876844480928
 N         -0.345052434823        1.358242375494        1.719988053835
 H         -0.133366276257        0.751548993584        4.877587447181
 H         -0.412673503376        2.775076208619        3.322870349341
 H          0.207937318859       -1.883470202555        0.851735779199
 H          0.351430078198        1.682931411772       -0.677252305110
 H          0.366542449852        2.004000016519       -3.035682176556
 H         -0.331681338684       -2.159693525934       -3.711064472669
 H         -0.168881375955       -2.564896182729       -1.272179381549
 C         -0.265591205975        1.753738247490        2.985065950159
 C          0.051671979156       -0.006618167451        1.754011839419
 C          0.191866786756       -0.490370868464        3.100581765951
 C          0.117906632242       -0.826092172942        0.635734534120
 C          0.080061404872       -0.481806608816       -0.765845715115
 C          0.180773250567        0.824063400579       -1.340702313160
 C          0.157074712941        1.021048688126       -2.706845559873
 C         -0.119121909177       -0.053696190529       -3.648676872434
 C         -0.246996197579       -1.384897690866       -3.021490555939
 C         -0.058244811001       -1.555762153425       -1.681815029440
 O          0.342582874809       -1.608878055136        3.627233760908
 O         -0.024533874900        0.110502448290       -4.890099579198
