21
Frame 4
 N          0.155999068263        0.750536864879        3.858317317995
 N         -0.078896566589        1.412163701295        1.710833285907
 H          0.088795258874        0.867482188086        4.875624464607
 H          0.036845136096        2.835925822208        3.383176362708
 H         -0.028167723893       -1.936740853115        0.840018972086
 H         -0.264567938152        1.562234322361       -0.541238703830
 H          0.009479892308        2.011691730843       -3.056321475429
 H          0.070359350512       -2.145995003116       -3.828628800169
 H         -0.111922594824       -2.675092690334       -1.359295619717
 C          0.006862533505        1.820374189795        2.961475534214
 C         -0.076481176113        0.001532844637        1.729772285355
 C          0.016378920038       -0.455624071335        3.127307027804
 C         -0.042901210228       -0.864603060479        0.603779245053
 C         -0.025248414839       -0.551159442703       -0.747631951057
 C         -0.093301006053        0.777159187008       -1.294774007326
 C         -0.039790869531        1.027365378711       -2.642271068283
 C          0.158738925762       -0.007236275220       -3.586493737768
 C          0.011429481441       -1.363831480736       -3.093561549997
 C         -0.117113116260       -1.634428863848       -1.726535276685
 O          0.062462983264       -1.596929467390        3.618624950543
 O          0.261039066420        0.165174978451       -4.832177256010
