21
Frame 4
 N         -0.127197331811        0.742954052412        3.896200769460
 N          0.016592050132        1.426879762939        1.730026745532
 H          0.122994401952        0.725909475184        4.878305972692
 H          0.132252654333        2.813579888450        3.282245676881
 H         -0.131431786690       -1.844316338139        0.878700328858
 H          0.056031099219        1.600676045399       -0.542247348826
 H         -0.060962554584        2.027228311907       -3.046654417623
 H          0.258571227665       -2.260124176084       -3.727010844514
 H          0.089371832860       -2.636277568403       -1.363323861415
 C          0.042583802880        1.784418094443        2.960945670985
 C         -0.022573975248        0.017562194512        1.747115353038
 C         -0.025302650543       -0.476780309405        3.142670713813
 C         -0.109611750406       -0.804943522226        0.625864762474
 C         -0.050015714303       -0.496160213198       -0.784800002205
 C          0.012532280482        0.822354629147       -1.311859889340
 C         -0.013206082440        1.027839362572       -2.659426422629
 C         -0.069474461735       -0.039308028109       -3.637618795075
 C          0.149149765159       -1.401530510791       -3.067803998573
 C          0.042300935229       -1.586610612759       -1.724484617633
 O         -0.128772688938       -1.615800828098        3.600662894403
 O         -0.183831053213        0.172450290246       -4.877508690303
