21
Frame 4
 N         -0.031239829957        0.665309070012        3.890145971849
 N         -0.220778771266        1.466820521825        1.814321436336
 H          0.299281337924        0.659819419952        4.859897967860
 H         -0.130708419000        2.754359220438        3.481693844105
 H          0.079679240018       -1.806011905049        0.871265413441
 H          0.015539148691        1.755609752662       -0.784512102243
 H          0.150372325919        2.037143721376       -3.109487548133
 H         -0.106893525692       -2.231900013599       -3.642312803030
 H         -0.039186731508       -2.530145066012       -1.261947671358
 C         -0.081269776726        1.750492340983        3.067274387001
 C         -0.163751894986        0.050806091910        1.742529929478
 C          0.014612202890       -0.520331480202        3.104209209633
 C         -0.063157044617       -0.761783674190        0.620111244904
 C         -0.002967905009       -0.461436039655       -0.767009915937
 C         -0.010653986237        0.837876008450       -1.390855023832
 C          0.005211650570        1.012957016834       -2.744116316059
 C          0.093436693752       -0.077000187401       -3.693354092157
 C         -0.064061950024       -1.376124847196       -3.027561244480
 C         -0.100468145949       -1.563035910791       -1.683668215278
 O          0.165568656314       -1.643031969539        3.602563881678
 O          0.191436724892       -0.020392070807       -4.949188353777
