21
Frame 4
 N          0.120410689653        0.714700289348        3.896514197192
 N         -0.055856222704        1.419335506365        1.800260875006
 H          0.061715331584        0.722262604797        4.902400113544
 H         -0.177342294938        2.810836357141        3.363791843615
 H         -0.036813163142       -1.848054680438        0.899567370520
 H         -0.009691422559        1.697658161286       -0.697075951229
 H          0.021137757347        2.014340015355       -3.039055723877
 H         -0.193137233288       -2.224242329444       -3.744207030906
 H          0.070389361031       -2.579293645423       -1.298623969546
 C         -0.065170994192        1.774962792847        3.045010341822
 C         -0.005102555007        0.032359276321        1.743403217000
 C          0.031595573953       -0.465290672496        3.106604217408
 C          0.008487946134       -0.777330133925        0.643273562961
 C         -0.067091754767       -0.513639727938       -0.759831399928
 C         -0.014678746970        0.810424624721       -1.342427561530
 C          0.030606352629        0.985262948883       -2.723343696047
 C          0.103976202032       -0.068015119098       -3.647876046823
 C         -0.089153600340       -1.390607719404       -3.074551659854
 C         -0.067678099271       -1.581883460964       -1.715127058511
 O          0.099208938360       -1.636559311749        3.505513933696
 O          0.234187934457        0.102774223816       -4.864219574513
