21
Frame 4
 N         -0.005945670573        0.732591829072        3.778601284000
 N         -0.087202039743        1.396908220449        1.640598636832
 H         -0.168490506636        0.854014461332        4.777755207022
 H         -0.272982833411        2.791509850840        3.167292018334
 H          0.169324351704       -1.921842573479        0.937241247429
 H          0.094653426259        1.524273327031       -0.456906762468
 H          0.122036737538        2.078651000695       -2.871115376212
 H         -0.188283011377       -2.146200095607       -3.772717105055
 H         -0.331273615229       -2.636051495327       -1.233778654140
 C         -0.142021872372        1.782982287050        2.870386507728
 C          0.031913298739        0.030647682658        1.642204679695
 C          0.165869434842       -0.444865948975        3.007301233447
 C          0.064960919565       -0.877079291268        0.612003698071
 C          0.096373854163       -0.643303299451       -0.774959942027
 C          0.095255659200        0.728707161356       -1.192103754109
 C          0.095547799707        1.034135268142       -2.540478836542
 C          0.033439727687        0.022724525766       -3.575563393709
 C         -0.105886534562       -1.359100714410       -3.048751942730
 C         -0.107940652843       -1.671909060728       -1.712245077268
 O          0.340574730785       -1.542464784937        3.537866029470
 O          0.100076796558        0.265671649792       -4.792629697767
