21
Frame 4
 N         -0.246520272835        0.741060425049        3.857257340512
 N          0.117514110959        1.420321286564        1.736445265806
 H         -0.282525180846        0.664375018292        4.881132074466
 H          0.261496521075        2.769630224643        3.354088752112
 H          0.112875216330       -1.906404200595        0.774183731437
 H          0.086508245328        1.665459213841       -0.611059365233
 H         -0.163271053295        1.992945188593       -3.139591677902
 H          0.027206352653       -2.251222534064       -3.814821566386
 H          0.118741825513       -2.522063277020       -1.232954339262
 C          0.099846604135        1.759205732152        3.008509548646
 C          0.060751029331        0.013543840358        1.737795125484
 C         -0.090998391042       -0.446402032430        3.116073796901
 C          0.076411460996       -0.834142675901        0.630662842310
 C          0.064259955447       -0.491908067980       -0.736788582131
 C          0.014076409336        0.856346190741       -1.339066223543
 C         -0.089658704626        0.990759452943       -2.685016414556
 C          0.005802469235       -0.103989240909       -3.634182635601
 C         -0.077812493763       -1.419064347936       -3.059504026396
 C          0.101932906797       -1.531915563671       -1.685421052116
 O         -0.082688133857       -1.551236197560        3.668889548417
 O         -0.113948876872        0.184701564891       -4.826632142964
