21
Frame 4
 N         -0.135210356813        0.742971491764        3.851441921201
 N          0.194100731321        1.453252426817        1.699860029125
 H          0.098534577914        0.783877189161        4.835157328786
 H         -0.076683323861        2.842409883409        3.278066713069
 H          0.044759185222       -1.876270969932        0.885481039764
 H         -0.044213971047        1.565340008239       -0.521271710130
 H         -0.048785518988        2.130241499881       -2.923916718911
 H          0.004287506314       -2.174237334852       -3.836580546973
 H         -0.053952498855       -2.687894567333       -1.280644286237
 C          0.004328012349        1.818243813742        2.940419172198
 C          0.038735194815        0.049012846903        1.712935366548
 C         -0.065838157395       -0.482065400684        3.064102600010
 C          0.064631451464       -0.825556813973        0.597492218614
 C         -0.021895431176       -0.556439983265       -0.764660613316
 C         -0.079496495875        0.758835194616       -1.257170696520
 C          0.006559621732        1.081452912856       -2.605019919359
 C          0.007546290923       -0.046876753697       -3.604885902926
 C          0.021664873475       -1.386720288914       -3.028526191338
 C          0.007617215992       -1.646908524643       -1.698568234825
 O         -0.040993136463       -1.638841671425        3.517584349956
 O          0.074304228952        0.096175041331       -4.861295918735
