21
Frame 4
 N          0.019557218821        0.692391970315        3.905907881170
 N          0.128556945018        1.471348768896        1.791785377862
 H         -0.276714076467        0.758803675144        4.878374865479
 H         -0.075122183534        2.807570840700        3.468705531251
 H         -0.027541777708       -1.819124285595        0.898712843578
 H          0.094166840335        1.688880124717       -0.682169402097
 H         -0.022244929471        2.081337822376       -3.062733474133
 H          0.028287392437       -2.256881356817       -3.776684781056
 H          0.017486640176       -2.618700436002       -1.289424668201
 C          0.025836695222        1.775679694936        3.057556352461
 C          0.094959702368        0.069690538246        1.743749637292
 C         -0.000709746174       -0.495177955604        3.092692428240
 C          0.116251023802       -0.784387039940        0.643609107504
 C          0.010860043424       -0.512239480760       -0.779119463406
 C          0.006944664812        0.819122659975       -1.351381881764
 C          0.018903038120        1.008406649165       -2.700366023066
 C         -0.048290769350       -0.087426711330       -3.680037128652
 C         -0.027011562100       -1.436910861421       -3.072944169792
 C         -0.083987157257       -1.608228328708       -1.704330382136
 O          0.060430702935       -1.651139898312        3.525974289380
 O         -0.060618705407        0.096983610017       -4.907876939915
