21
Frame 4
 N         -0.008489495819        0.748737250823        3.868245651223
 N         -0.119325720948        1.429814113086        1.726603791835
 H          0.048332228414        0.791486658301        4.855406202948
 H          0.111414364094        2.795982449382        3.313961086685
 H         -0.117986012804       -1.935244673171        0.856807715968
 H         -0.227200118882        1.626730854978       -0.609403803366
 H          0.033726843708        2.042523529235       -3.140906840431
 H         -0.107545166296       -2.254206139995       -3.716048035143
 H         -0.136258790135       -2.623731985700       -1.324405572491
 C         -0.099272413402        1.798350086877        2.973035434832
 C         -0.120949893272       -0.002406773117        1.750101757505
 C          0.062718541138       -0.491267691892        3.099281144830
 C         -0.049862264675       -0.864727118104        0.625816184338
 C          0.050790098913       -0.517442354618       -0.715277292155
 C         -0.096171616819        0.822382336520       -1.286891360368
 C          0.018542540879        1.022265330288       -2.634517537001
 C          0.184876205220       -0.026840643776       -3.626194342868
 C         -0.007904505514       -1.370523383390       -3.052605505166
 C          0.035149817961       -1.585073754583       -1.694179923738
 O          0.296896673776       -1.626555917822        3.598174457937
 O          0.248518684462        0.219747826681       -4.867003215374
