21
Frame 4
 N          0.247363677089        0.709971236184        3.898973805312
 N         -0.138024112791        1.412264480216        1.799920738591
 H         -0.036112020587        0.550295793191        4.881386651178
 H         -0.154492385160        2.814218282484        3.340029382010
 H         -0.209063379524       -1.820646265016        0.839627918925
 H          0.015422149474        1.700049963052       -0.639539271659
 H          0.090156770217        1.938703770917       -3.226549017185
 H          0.029922732570       -2.244822585697       -3.760400149015
 H         -0.181065556587       -2.578053338489       -1.232682605956
 C         -0.071828753874        1.777617594168        3.011652616514
 C         -0.019531229137        0.037330414572        1.757371624565
 C          0.181708787003       -0.469588021161        3.134190172174
 C         -0.067925706117       -0.717920914419        0.588334532121
 C         -0.140054785183       -0.423759977890       -0.792389191710
 C         -0.071408954370        0.873680164121       -1.355589824351
 C         -0.042222071537        1.028732271840       -2.682728131273
 C          0.105427692253       -0.095753000391       -3.607106169655
 C          0.119566534155       -1.439192591293       -3.039330068239
 C         -0.104726181298       -1.585194566473       -1.671897907922
 O          0.262633335264       -1.616023842588        3.601561001983
 O          0.184253458143        0.148091132673       -4.844836106407
