21
Frame 4
 N          0.045515489940        0.686519096385        3.815855115415
 N         -0.074073449128        1.433172553087        1.703384330196
 H          0.169281968599        0.634027073830        4.821937967720
 H          0.303048708123        2.767146413785        3.294674046651
 H         -0.095402940585       -1.832373597470        0.873832565078
 H         -0.355996681040        1.717294530860       -0.617633674413
 H         -0.057053693806        2.033005770415       -3.076457690074
 H          0.221751956097       -2.295529851815       -3.722962234649
 H         -0.038158889119       -2.615877719523       -1.209784956636
 C          0.151386320793        1.753417450471        2.969352457719
 C         -0.120488634472        0.045710920568        1.718268825317
 C          0.005435566144       -0.447506459465        3.053454586393
 C         -0.175543827850       -0.785327383171        0.632401927866
 C         -0.218882968052       -0.480641233790       -0.754584773849
 C         -0.310377228651        0.857124092442       -1.306679014077
 C         -0.164097687302        1.022041092395       -2.634610616095
 C          0.158398187652       -0.036115672502       -3.612877295967
 C          0.108809869652       -1.436799976283       -3.012166150113
 C         -0.035391819818       -1.585621205297       -1.666689351893
 O          0.037288723842       -1.608974428788        3.532656001044
 O          0.444551028979        0.175308533865       -4.801372065633
