21
Frame 4
 N         -0.107637274057        0.710355050603        3.853263709352
 N          0.061904849206        1.515351062342        1.759923947375
 H         -0.154743402459        0.628154030523        4.851759288487
 H         -0.065631570223        2.806794165892        3.464193795849
 H         -0.155249821099       -1.765332973586        0.948536887564
 H          0.189568192768        1.621604237935       -0.606019246912
 H          0.076588371550        1.988287549781       -3.071424268990
 H         -0.116050544531       -2.250097823132       -3.704028591998
 H          0.230340025220       -2.654726021444       -1.289972533589
 C         -0.016686284838        1.821876344432        3.006909922397
 C         -0.037209226959        0.100883762607        1.684896036533
 C          0.018402117408       -0.493103347088        3.010851450755
 C          0.051490021147       -0.757980406847        0.605940620660
 C          0.070866059664       -0.527723507823       -0.774195229300
 C          0.071245240378        0.787498840394       -1.316436945227
 C         -0.008506699574        1.011600089351       -2.672584539078
 C         -0.111062327853       -0.061387218286       -3.632245815920
 C         -0.093497629709       -1.414748329496       -3.031596862506
 C          0.060060213909       -1.657234227213       -1.715585091279
 O          0.128237837038       -1.600048233066        3.478492580376
 O         -0.092428146987        0.189976954120       -4.850679114550
