21
Frame 4
 N          0.155194442833        0.722796591658        3.856549833239
 N          0.135391761119        1.452204261255        1.755159456522
 H          0.125324931368        0.737749126444        4.888070758415
 H          0.034185314871        2.803926681126        3.309470657547
 H         -0.118824611892       -1.867072762354        0.900544919915
 H         -0.080940164201        1.600138321656       -0.615147043642
 H         -0.087055917909        2.008127525315       -3.060202948017
 H          0.201377896132       -2.206785411908       -3.745017005002
 H          0.247602348176       -2.629498983612       -1.290264642348
 C          0.158108370073        1.798537258208        3.002705523508
 C         -0.009787084388        0.062914806649        1.702144062234
 C         -0.076443524454       -0.473404114384        3.085280660342
 C         -0.097492177858       -0.806464307958        0.608343078581
 C         -0.182374372799       -0.558773498084       -0.777867780361
 C         -0.176594706988        0.763242302756       -1.307114651813
 C         -0.129838677740        1.048092560344       -2.632190829228
 C          0.029655623011       -0.006222359949       -3.600511924807
 C          0.082119071267       -1.387951355373       -3.041294819707
 C          0.000441650616       -1.630630072948       -1.702583680226
 O         -0.301997990642       -1.603902188037        3.508105609177
 O          0.091947819409        0.172975619196       -4.844179234328
