21
Frame 4
 N          0.114935338761        0.664163372176        3.900351164274
 N          0.049568535642        1.389779487374        1.699883668901
 H         -0.009880209221        0.772293147211        4.920724730952
 H          0.081534397054        2.719062289156        3.332546824421
 H         -0.179153405566       -1.837298264418        0.818707977539
 H          0.056266146811        1.693041180368       -0.662121602451
 H         -0.184256188111        2.005724968937       -3.154633595665
 H          0.275918892172       -2.181398440776       -3.652076407818
 H          0.188999849344       -2.573390815834       -1.289471319395
 C          0.127054756033        1.729198522344        2.964156003016
 C          0.037102802460       -0.019289411588        1.747828281615
 C         -0.127883195264       -0.469660464914        3.135364097944
 C          0.021008824200       -0.781346726921        0.590560025363
 C          0.040712503323       -0.435581423474       -0.766799617966
 C          0.075439424622        0.879026410932       -1.352255053141
 C         -0.050331243188        1.052960843650       -2.692180558934
 C         -0.136793047951       -0.065419519529       -3.605921996908
 C          0.081953175054       -1.369301740344       -2.984164733733
 C          0.084262462644       -1.595823871597       -1.664099981300
 O         -0.355252128400       -1.634330864083        3.544962099284
 O         -0.191207690418        0.057591321332       -4.831360005997
