21
Frame 4
 N         -0.091343538329        0.707479553078        3.888328669101
 N         -0.013841978689        1.514943080392        1.806787513150
 H          0.071110821606        0.604485380867        4.886433928096
 H         -0.062700850228        2.758435186273        3.538592577883
 H          0.163394023838       -1.748918931446        0.973770700947
 H          0.040679470894        1.612956062722       -0.675885662281
 H         -0.163451089863        2.019163513965       -3.234266404482
 H         -0.253584966428       -2.241125257290       -3.773609159829
 H         -0.001466617108       -2.629834836166       -1.254714651501
 C         -0.026458680294        1.792517489806        3.075456042092
 C          0.013388824193        0.104452875947        1.748605648013
 C          0.000685762717       -0.475102007801        3.103732731450
 C          0.140223331464       -0.713569691396        0.595663694099
 C          0.084047199090       -0.473161296465       -0.809376775119
 C          0.046956577914        0.820274170577       -1.401163065392
 C         -0.051400537940        1.052785321770       -2.728606211575
 C          0.027226914454       -0.068500591269       -3.632413379536
 C         -0.046498577253       -1.415166614834       -3.053666352850
 C         -0.014040539183       -1.624245809086       -1.686019779857
 O         -0.125758621970       -1.655185768271        3.513854726869
 O          0.262833071114        0.057318168628       -4.881504789274
