21
Frame 4
 N          0.054565714180        0.689057736112        3.848300082378
 N         -0.243577799938        1.421403445957        1.791481928859
 H          0.164433649783        0.626583047115        4.849164450785
 H         -0.373984709919        2.841326486975        3.353435861929
 H         -0.161593394338       -1.869911815089        0.857666543509
 H          0.299282747794        1.697608892574       -0.633536186649
 H          0.145734109312        1.996994090953       -3.143382598108
 H         -0.054942728398       -2.237497333489       -3.700413092074
 H         -0.291273783069       -2.643465456511       -1.270844081937
 C         -0.209528157608        1.803859508031        3.050275890251
 C         -0.034357887249        0.018822300407        1.716616428123
 C          0.138079369937       -0.479747373241        3.068509121489
 C         -0.086616299570       -0.814663273940        0.612317533286
 C         -0.057593069581       -0.477606629463       -0.762750959188
 C          0.085060518044        0.859338975022       -1.328204633127
 C          0.112556824078        1.048712183490       -2.676473421610
 C          0.028709825615       -0.043470749244       -3.631752889950
 C          0.033303032339       -1.416261506976       -3.037891844739
 C         -0.108375703758       -1.599837788988       -1.657123867374
 O          0.478111835174       -1.560363746872        3.566269273435
 O          0.082005907171        0.139119007178       -4.871663539288
