21
Frame 4
 N          0.051880777318        0.705296176187        3.869491051925
 N         -0.035472990734        1.428662515631        1.756391642969
 H          0.145982507607        0.596648581336        4.837877138079
 H          0.184625220291        2.796751172137        3.297722910367
 H         -0.207166453071       -1.827978413813        0.834849022805
 H         -0.083055085150        1.668487423225       -0.603295875410
 H         -0.198228523602        2.029183564082       -3.115389256982
 H          0.279733769578       -2.243117004101       -3.706005368286
 H          0.003193293661       -2.596202930674       -1.219280673107
 C          0.090264328296        1.788848002413        2.983955555212
 C         -0.079822219227        0.015456685134        1.719135958994
 C         -0.107719421336       -0.462620776334        3.116310617350
 C         -0.074195638513       -0.789084702899        0.602448485090
 C          0.059028632095       -0.472487875137       -0.803309602324
 C          0.013857860012        0.901140770805       -1.321481395845
 C         -0.129993585559        1.026764100476       -2.682274700107
 C         -0.015344834949       -0.056713259668       -3.616237170632
 C          0.165978204645       -1.431418877810       -3.002585975854
 C          0.021202820429       -1.589844150708       -1.660424787842
 O         -0.138514737712       -1.613742245634        3.569702527060
 O          0.053766075919        0.125971245353       -4.857600103464
