21
Frame 4
 N          0.045346889181        0.695705432634        3.946640163943
 N          0.094241651897        1.501000691643        1.852542781495
 H         -0.312400908065        0.681082197904        4.851550141271
 H          0.111850707293        2.820369229956        3.490880487534
 H         -0.020998353839       -1.756475294649        0.733089792625
 H          0.112260362374        1.611391487483       -0.647043499026
 H         -0.008968536397        1.941946771838       -3.106037500822
 H          0.076405097667       -2.307338885624       -3.596785020770
 H          0.208581730289       -2.562295639965       -1.330052374222
 C          0.050456393265        1.803344447349        3.115463164458
 C          0.053612658269        0.118288284939        1.735727022166
 C         -0.019914857246       -0.489282471248        3.053897982718
 C          0.078961275803       -0.707086134373        0.582822033830
 C         -0.004993958315       -0.504148726444       -0.773502890096
 C          0.050626496767        0.797502453258       -1.326915804054
 C         -0.086580504118        0.973224583747       -2.663034052556
 C         -0.139931033763       -0.095842640191       -3.700302108979
 C          0.034141590555       -1.406732869390       -3.055160764573
 C          0.032197972717       -1.577424702659       -1.697342899413
 O         -0.160455500563       -1.656427214749        3.428630976584
 O         -0.194439173771        0.119198998541       -4.895067632115
