21
Frame 4
 N          0.126171781836        0.672707882568        3.887566469385
 N         -0.070997222686        1.474765381248        1.779855268840
 H          0.482417217578        0.637029534574        4.834597004110
 H          0.161387818954        2.822099463003        3.406906059319
 H         -0.195983481759       -1.835878960428        0.919724319431
 H         -0.304870514419        1.756493452941       -0.711686984277
 H         -0.132728456266        1.966547927519       -3.067569891522
 H          0.386871544385       -2.295690970204       -3.708577114907
 H         -0.043781897838       -2.618989427520       -1.405778235361
 C          0.111464538002        1.781190022342        3.028517508386
 C         -0.241488921048        0.068775585042        1.728060082369
 C         -0.060310229985       -0.475561272383        3.120051900389
 C         -0.239586441064       -0.779276282351        0.641926417435
 C         -0.157561474689       -0.491764989997       -0.764906809968
 C         -0.119116957907        0.821936697223       -1.284720313132
 C         -0.146172076322        0.978231203498       -2.648036226545
 C          0.157659427254       -0.084672357258       -3.662991140690
 C          0.124508497747       -1.430073531477       -3.101334307414
 C          0.015142938364       -1.555604980662       -1.729272341090
 O         -0.137853521629       -1.580694267331        3.638830549122
 O          0.284827431491        0.168429889652       -4.901162213882
