21
Frame 4
 N          0.168220758888        0.712552453428        3.905582052754
 N         -0.140132642571        1.401827893606        1.726539975777
 H          0.270708740511        0.717097183526        4.884644084515
 H         -0.141373179193        2.778160114400        3.342349497880
 H         -0.016769447941       -1.891222197715        0.898056310704
 H         -0.229424860512        1.733307489726       -0.692766760211
 H          0.039288632069        2.141529844039       -3.057414341694
 H          0.036566813779       -2.279912630800       -3.690703743420
 H         -0.251507128313       -2.547223940317       -1.251117407791
 C         -0.058733714783        1.737304241693        2.959116102280
 C         -0.018630603172        0.000275694119        1.730506725749
 C          0.045135722527       -0.483060423222        3.126001938954
 C         -0.099571237321       -0.862639127781        0.620735811203
 C         -0.176164538126       -0.453152422593       -0.745657514115
 C         -0.137375348984        0.864565228355       -1.361451777987
 C          0.027983247723        1.081621752381       -2.699477814880
 C          0.201391645995       -0.074188751391       -3.653895955662
 C          0.043715083514       -1.399843726459       -3.009836213140
 C         -0.190701843903       -1.565026715326       -1.650856677994
 O          0.210598669625       -1.646877130445        3.512656782091
 O          0.416775230189        0.034905170776       -4.893011075014
