21
Frame 4
 N         -0.114279629314        0.738589182587        3.865277832608
 N         -0.000092823069        1.454521729374        1.724478419624
 H          0.000226001106        0.752758873267        4.886896722297
 H          0.281489726281        2.825030706632        3.270240787172
 H          0.035473917883       -1.825938420109        0.931014317676
 H         -0.167681518920        1.582232064374       -0.519704445509
 H         -0.150566312544        2.055825052183       -2.975255454979
 H          0.023517482725       -2.314353698729       -3.782296211951
 H          0.021126764199       -2.568683499141       -1.238957412476
 C          0.133854374849        1.777105868438        2.991988204675
 C         -0.066940846971        0.029787180007        1.709150112210
 C         -0.070684102159       -0.477816689665        3.054964149954
 C         -0.045916932990       -0.809563399443        0.631566414190
 C         -0.047585831528       -0.533075078963       -0.767044909861
 C         -0.152183264865        0.794393776889       -1.280358327924
 C         -0.041574384154        1.028049805503       -2.643499899390
 C          0.073764120606       -0.040974490201       -3.640743841208
 C          0.124766560617       -1.389716220230       -3.081828991302
 C          0.097900626065       -1.613295337690       -1.715300398742
 O         -0.066592019183       -1.648940256248        3.480035415510
 O          0.131978091369        0.184062851166       -4.900622482574
