21
Frame 4
 N         -0.194196001256        0.696516049744        3.833545917269
 N          0.215820989746        1.442964984448        1.736153798954
 H         -0.084147085816        0.684207783812        4.829971636298
 H         -0.091145135542        2.763091756366        3.426368577231
 H          0.062707260274       -1.828239869944        0.914462149222
 H         -0.027868976630        1.710027528455       -0.705708260131
 H         -0.052720256056        2.038485326223       -3.098864041589
 H          0.026913118182       -2.227523948211       -3.712596925239
 H         -0.135853850036       -2.613303219640       -1.260890923356
 C          0.027464608085        1.768941944143        3.003807219705
 C          0.176566957258        0.010216299933        1.744237751770
 C          0.054827165790       -0.462790932990        3.119116516461
 C          0.043862799793       -0.778659510089        0.634893318326
 C         -0.074293968565       -0.502413862187       -0.765169248248
 C         -0.001606212324        0.850933750832       -1.336495790449
 C         -0.032745364764        1.013979047216       -2.686713001536
 C          0.055004386715       -0.038821053705       -3.637457582145
 C          0.026378991182       -1.385320787990       -3.039052224364
 C         -0.062854224894       -1.619487833672       -1.700251696717
 O          0.031803989089       -1.625234066502        3.591895227428
 O          0.036080809770        0.102430613756       -4.891252418892
