21
Frame 4
 N         -0.077845436760        0.704442474555        3.829630146719
 N          0.185178310173        1.466684738742        1.762287574782
 H         -0.300785232002        0.688740393941        4.836438666581
 H         -0.032412348953        2.783913707777        3.422743415798
 H          0.248060455156       -1.854522488252        0.918096405161
 H         -0.076918541884        1.729673889468       -0.712160830909
 H          0.117591338790        1.983587419162       -3.096693655696
 H         -0.110397933036       -2.222725577895       -3.748101503183
 H         -0.022534748490       -2.557959641154       -1.229856640139
 C          0.032855843708        1.804246371776        2.987293123360
 C          0.128657070145        0.031981628846        1.771041581547
 C          0.024879347831       -0.512122614772        3.110873929864
 C          0.105419111807       -0.807853503323        0.626367032228
 C         -0.052096691723       -0.491765896303       -0.757234644444
 C         -0.111070554787        0.843827454325       -1.307818327618
 C          0.060720286000        0.996218395608       -2.667947783828
 C          0.021474935011       -0.075345669886       -3.655106564320
 C         -0.006859792763       -1.382647173683       -3.055952446311
 C         -0.029687143994       -1.579155281698       -1.683913508952
 O         -0.008471392878       -1.660007490615        3.537383581987
 O         -0.095756881351        0.110788863380       -4.887369552627
