21
Frame 4
 N         -0.087948586997        0.657272233800        3.916841227845
 N          0.101732239891        1.477968311412        1.842773867774
 H         -0.004487900926        0.596820563076        4.910098418800
 H          0.199133495863        2.736459991758        3.563401331313
 H          0.072780097190       -1.690936312875        0.708431776402
 H         -0.172571996055        1.738238164418       -0.760920242587
 H         -0.103715214687        2.036962580832       -3.169576406925
 H         -0.047363869549       -2.284572725169       -3.675961015661
 H          0.222613386528       -2.593595271367       -1.270770943504
 C          0.019489607697        1.772177552242        3.119323041386
 C          0.065733952184        0.084658319944        1.749560703151
 C         -0.129213382448       -0.497437518009        3.072323143330
 C          0.014982520894       -0.640558054914        0.588269761626
 C          0.117676110186       -0.424601158491       -0.783725791102
 C         -0.004897849778        0.862061719298       -1.401348210858
 C          0.022057350470        1.011618517250       -2.734425586069
 C          0.006324111701       -0.138523503297       -3.660100143224
 C          0.041640556276       -1.440027730999       -2.999605287292
 C          0.056424113203       -1.550033994181       -1.633388087299
 O         -0.292708801710       -1.648705879861        3.509934660987
 O         -0.097679939934       -0.065245804867       -4.891136218092
