21
Frame 4
 N         -0.115724273366        0.730963052295        3.865081670536
 N         -0.036178778596        1.487985927960        1.761133224120
 H          0.046387539164        0.757571673725        4.860525136159
 H          0.089492454966        2.788609624679        3.402685470852
 H          0.100467022047       -1.823793358627        0.886960617394
 H         -0.056677268545        1.607868175148       -0.556045709209
 H          0.035829196433        1.988601310540       -3.124247813605
 H         -0.048455471332       -2.183323127659       -3.789122481217
 H          0.021317004928       -2.645094641261       -1.323240882010
 C         -0.041544323908        1.796312529419        2.993385276590
 C         -0.000438196298        0.061692846334        1.723701610928
 C         -0.055192152455       -0.492742225636        3.052711980637
 C          0.087635089508       -0.763720594538        0.588292245493
 C          0.114362238922       -0.517267898351       -0.784317153371
 C          0.041242222881        0.813512943335       -1.303159581483
 C          0.064442125581        1.018604806548       -2.673199230775
 C         -0.047526618652       -0.055520944164       -3.592617095709
 C          0.101665100868       -1.413890426296       -3.031352834622
 C          0.109131078045       -1.658562788628       -1.712411623765
 O         -0.190745609714       -1.648035729514        3.544667364210
 O         -0.219488380475        0.150228844689       -4.789430191153
