21
Frame 4
 N         -0.067989280764        0.602888884874        3.890323355042
 N          0.114252370268        1.491379776526        1.818567009834
 H         -0.053096816099        0.565862938246        4.893691044231
 H          0.026102297941        2.748545387995        3.524015852318
 H         -0.034611808092       -1.715536678893        0.919970473161
 H          0.064570667600        1.719889385872       -0.669986493165
 H         -0.101132491146        1.977761678934       -3.252314231414
 H          0.079562568875       -2.305066753281       -3.726185952081
 H          0.114742257128       -2.526356745900       -1.160703928613
 C          0.126394438886        1.750565187407        3.083109409007
 C          0.001607797890        0.134983982786        1.736093864106
 C         -0.127376869453       -0.498842277719        3.051211216578
 C          0.058708942100       -0.634569984506        0.587969678321
 C          0.017208074975       -0.412446699089       -0.802708221630
 C          0.032932674274        0.896044786494       -1.368942266407
 C          0.006375704867        1.054163292320       -2.733398930856
 C         -0.116116935934       -0.109777355148       -3.620819629277
 C          0.002386128594       -1.432274542074       -3.034190027938
 C          0.164374349644       -1.581629011539       -1.682064978711
 O         -0.171235872389       -1.674003637682        3.425559350366
 O         -0.137658199166       -0.051581615623       -4.879196592872
