21
Frame 4
 N          0.064983359407        0.654162549706        3.935908023426
 N          0.056995179988        1.443864082753        1.813443065642
 H         -0.247163938413        0.669126234127        4.894275357253
 H          0.094129969620        2.765847081923        3.500856371550
 H          0.071894455655       -1.798873937081        0.858251689269
 H         -0.053447425636        1.772861960013       -0.748424377014
 H          0.207431682464        1.980346292791       -3.202219010223
 H         -0.114366773560       -2.258534910775       -3.724372101331
 H          0.265394891580       -2.525628286410       -1.210821498597
 C         -0.031201167854        1.758156186277        3.079805587383
 C         -0.051570652752        0.051867598595        1.749545141126
 C         -0.034472005885       -0.513198214955        3.106472254601
 C         -0.027448531671       -0.726698227367        0.597327684653
 C         -0.030547264783       -0.413391513738       -0.777161957242
 C          0.039151854642        0.877484235275       -1.333467087146
 C         -0.004574456701        1.000835049547       -2.726553435650
 C         -0.059541507343       -0.105349134670       -3.679228031772
 C         -0.025590002496       -1.397676050859       -3.055228824392
 C          0.091003688150       -1.532021347001       -1.699193150955
 O         -0.018176246188       -1.672304513207        3.534823185772
 O         -0.192885108223       -0.030875134944       -4.914038886351
