21
Frame 4
 N         -0.154551053077        0.695336179936        3.899786440922
 N         -0.086285791520        1.546689464159        1.798408684455
 H          0.207703444916        0.624886256487        4.870900280710
 H          0.064511190786        2.715670895424        3.536290483017
 H         -0.001036562472       -1.797579562736        0.926338243117
 H         -0.088139356128        1.636843962534       -0.710878145699
 H          0.037545484623        2.053953159864       -3.052519511945
 H         -0.053984943641       -2.219245117697       -3.745819769117
 H         -0.009923124483       -2.620697369462       -1.248637068034
 C         -0.023306015847        1.773796732692        3.064619447198
 C         -0.121834707582        0.101527283377        1.716876481631
 C         -0.075392660573       -0.452942172419        3.112427620772
 C         -0.059634045074       -0.747592417040        0.600416189388
 C         -0.090544996403       -0.504801304480       -0.796346942175
 C         -0.044954040093        0.803450510008       -1.411561267038
 C          0.057894959548        1.036384056195       -2.755807406534
 C          0.078216456056       -0.080303347451       -3.696559039537
 C          0.045558495527       -1.381427060567       -3.042093705324
 C         -0.004008147913       -1.618779328150       -1.673001487312
 O          0.193201127603       -1.583037920912        3.532127998722
 O          0.128964285749        0.017867100238       -4.924967527217
