21
Frame 4
 N          0.016969477676        0.708901958747        3.846880197742
 N         -0.208087581999        1.452604096302        1.760229486611
 H         -0.064708496789        0.671001733047        4.828917796119
 H         -0.131207958853        2.806385340593        3.426626799491
 H          0.048124565940       -1.817405900659        0.978600472143
 H         -0.011926033640        1.640083754850       -0.610225591556
 H          0.157534842398        2.080572542345       -3.027653995871
 H         -0.307414938139       -2.285723807182       -3.673229637371
 H         -0.193991586979       -2.638302513377       -1.310525613970
 C         -0.162881175655        1.785414975327        3.033365876514
 C         -0.055871331465        0.048886291627        1.703057403856
 C          0.176569318958       -0.477391551477        3.034464183851
 C         -0.036233538823       -0.786488986476        0.605839590193
 C         -0.017906246897       -0.524794019666       -0.780842397355
 C         -0.003299242015        0.782239216773       -1.329460200148
 C          0.087373394172        0.995681021084       -2.686754805572
 C          0.132135802515       -0.052360566326       -3.679015695465
 C         -0.007407852273       -1.394731558893       -3.050025595028
 C         -0.099341475508       -1.592148866204       -1.716415481559
 O          0.438960250419       -1.561583761557        3.540637311128
 O          0.242609806955        0.159160601123       -4.894470103754
