21
Frame 4
 N          0.021638508579        0.748649975128        3.903728486575
 N         -0.134654200487        1.390882431136        1.734625920839
 H          0.165706043042        0.764976749728        4.897477496793
 H         -0.016369825239        2.849291342279        3.275009453440
 H         -0.254267349330       -1.876506969215        0.855405006003
 H         -0.038686869388        1.611922023188       -0.606237372568
 H          0.069835872141        2.089749480191       -2.966023014428
 H          0.196750200991       -2.245407787389       -3.811101314421
 H         -0.112481792987       -2.651127384203       -1.421683702590
 C         -0.021786961033        1.788623093393        2.963690674893
 C         -0.110008909890       -0.006816040444        1.728462300102
 C          0.032351380795       -0.454213834798        3.126268476801
 C         -0.081561305047       -0.865202675206        0.603677741613
 C         -0.021396067929       -0.556554570350       -0.764837919743
 C         -0.047025002842        0.825191522456       -1.305689169747
 C         -0.029719715077        1.021371781886       -2.636756450411
 C          0.030301211232       -0.061149677893       -3.615933368655
 C          0.032785142533       -1.416677195888       -3.106853268470
 C         -0.063386504802       -1.613532149271       -1.745056872074
 O          0.250694572936       -1.539803930710        3.716499641401
 O          0.131281571804        0.196333815983       -4.824672745353
