21
Frame 4
 N          0.059347575309        0.688855351530        3.831940555742
 N          0.004573322483        1.488303101130        1.725620400865
 H         -0.276438226109        0.680462620097        4.765307207491
 H          0.027800101054        2.830226726797        3.348419577376
 H          0.062215281698       -1.818605669463        0.967602145082
 H         -0.050150970984        1.623006549383       -0.588669920135
 H         -0.094344499997        2.025949652225       -2.992997007033
 H         -0.048811959690       -2.269823016303       -3.763380324010
 H         -0.127598806439       -2.667613893564       -1.282737081772
 C         -0.013365412006        1.806698613517        2.980799659883
 C          0.175184768502        0.077195607630        1.688150577582
 C          0.157381149513       -0.486926642336        3.047047657943
 C          0.060035592971       -0.782151450541        0.620569805508
 C         -0.025649549360       -0.521246069162       -0.760519830394
 C         -0.053428821275        0.789841422241       -1.299382772612
 C         -0.000127173940        1.020101728822       -2.599546978506
 C          0.010915628718       -0.046159248375       -3.626918565449
 C          0.060628447998       -1.432314890236       -3.051708267287
 C         -0.087558662374       -1.617348098432       -1.686124233434
 O         -0.001975871779       -1.612949036584        3.522955564463
 O          0.161368085705        0.224496641624       -4.846428171304
