21
Frame 4
 N         -0.028340450477        0.636535178201        3.901795744632
 N         -0.030224041526        1.587517057984        1.895623129490
 H          0.146247111025        0.498073173072        4.903330085822
 H          0.174017982292        2.776124185006        3.658130491880
 H         -0.147215691943       -1.733462673381        0.867069062380
 H          0.030961599165        1.713676197653       -0.727572814072
 H         -0.109784771329        1.940126583774       -3.373510027293
 H          0.102396062513       -2.313614227594       -3.743148130406
 H          0.179329864242       -2.564833533048       -1.198553524866
 C          0.040755221628        1.772689271274        3.197584809142
 C         -0.127046360360        0.167685624942        1.744999967422
 C         -0.133765613291       -0.483906848884        3.056559659594
 C         -0.105960824479       -0.646509946055        0.601919765347
 C          0.033277983844       -0.415435755921       -0.798806587465
 C         -0.020537078430        0.901418194622       -1.396173862699
 C         -0.007579072981        1.022301445205       -2.760507203687
 C          0.007732406922       -0.158388099251       -3.694145759918
 C          0.125467361657       -1.438066965300       -3.034251458299
 C          0.157881343720       -1.570630051464       -1.654802987383
 O         -0.135398133151       -1.690227131153        3.503799640817
 O         -0.152214899042       -0.001071679683       -4.949340000439
