21
Frame 4
 N         -0.032035082146        0.665601729417        3.887620591672
 N          0.088591489859        1.507448519555        1.813072828785
 H         -0.225307020633        0.631155012277        4.896294095785
 H         -0.494870761993        2.732717509625        3.395158471945
 H          0.098314986073       -1.736886099102        0.858875484443
 H          0.384486641141        1.689785866368       -0.710197646374
 H          0.316084363949        1.952664470805       -3.068615086979
 H         -0.284741549850       -2.235728609499       -3.807208556510
 H          0.125424934136       -2.580056642575       -1.254128426647
 C         -0.137750519792        1.784179549860        3.047632467760
 C          0.155234973055        0.110236571674        1.743322381832
 C          0.068016320441       -0.479860245680        3.065247951160
 C          0.158923916786       -0.696286347381        0.605301530468
 C          0.113814338644       -0.469124821091       -0.747221097495
 C          0.232938364045        0.836147283066       -1.367353144237
 C          0.105378067697        0.982342981903       -2.690940593810
 C         -0.199902656745       -0.117474025890       -3.601653290061
 C         -0.179515999964       -1.384030313592       -3.017764099954
 C          0.020194023261       -1.583388180088       -1.669473965057
 O          0.047885641878       -1.649662312426        3.446025668442
 O         -0.361164469842        0.040218102775       -4.823995565169
