21
Frame 4
 N          0.075200988450        0.746116918280        3.868228832428
 N          0.009083239009        1.421232346538        1.732802253971
 H          0.002784114578        0.774435124635        4.864161282658
 H          0.232755781722        2.852715291820        3.253909655464
 H         -0.004885045160       -1.893389266829        0.945507863332
 H         -0.104341824473        1.662963496340       -0.638373505673
 H         -0.159783960448        2.044131865017       -3.023315945478
 H          0.299741483100       -2.146471431800       -3.810710541561
 H         -0.029269665557       -2.667563996271       -1.392690889068
 C          0.021566076980        1.813898216474        2.956497194409
 C         -0.052813927437        0.012831097306        1.762547327150
 C         -0.001962244283       -0.485431536886        3.107061176471
 C         -0.138144433171       -0.828817357579        0.634414313391
 C         -0.076449680472       -0.560765733164       -0.730393544295
 C         -0.072779894200        0.773473719059       -1.271555275708
 C         -0.095294552289        1.023791667519       -2.618444353474
 C          0.032767371974       -0.061392534711       -3.616057684015
 C          0.033270816537       -1.390369907295       -3.071280678445
 C         -0.107077167294       -1.615715190990       -1.717504321489
 O         -0.053427875761       -1.651937355615        3.605829653191
 O          0.189060398196        0.176264568150       -4.840632813259
