21
Frame 4
 N         -0.089040881764        0.764292368564        3.860910290230
 N          0.146465748742        1.375902260401        1.702174645211
 H         -0.180202245706        0.914278834543        4.856548727303
 H         -0.013314109970        2.841978389811        3.266517298873
 H         -0.045813133586       -1.949607655192        0.923312338157
 H         -0.013112585548        1.573231160665       -0.545521042801
 H         -0.017007237783        2.092523888225       -2.936216995560
 H         -0.046091548998       -2.201037567214       -3.761556605327
 H          0.110290368665       -2.719809675314       -1.464350441048
 C          0.090963038168        1.792377138930        2.973482499847
 C          0.061137138805       -0.037878781567        1.741626442387
 C         -0.059544925549       -0.418279087760        3.159413740511
 C          0.027232762300       -0.915094972306        0.620545836906
 C          0.137579694651       -0.602968824797       -0.766306756063
 C          0.054262700836        0.765539530718       -1.303689158518
 C          0.025445776845        1.069515995905       -2.631818464052
 C         -0.057524404541        0.007118518198       -3.629012041847
 C          0.017895024693       -1.364287843529       -3.087619127584
 C          0.126324139195       -1.638598766847       -1.765266688063
 O         -0.070508943185       -1.571524213727        3.643160620173
 O         -0.205436376268        0.222329302292       -4.856335118735
