21
Frame 4
 N          0.265561302177        0.743710884239        3.830389705333
 N         -0.292719287245        1.424930588001        1.735550590543
 H          0.550088831237        0.742757280388        4.785928753661
 H         -0.007999828346        2.811859162474        3.277837992509
 H         -0.131890465565       -1.883845518514        0.914621368090
 H         -0.439911086000        1.616856999963       -0.595717660727
 H          0.181021315944        2.008246230915       -3.043776652666
 H          0.272373036545       -2.133878984125       -3.851374210003
 H         -0.227412550943       -2.570365824130       -1.325294666773
 C          0.021745272926        1.771065566269        2.968642283057
 C         -0.254055670838        0.009214939764        1.790326800994
 C         -0.037750073730       -0.463816856320        3.152821505724
 C         -0.207799199081       -0.823961347357        0.667546657221
 C         -0.255378827927       -0.545436569447       -0.757559516301
 C         -0.245887586447        0.823018409869       -1.301170989575
 C          0.050472081301        1.004517826790       -2.636381137766
 C          0.174762729330       -0.065282119540       -3.606320152826
 C          0.067317298397       -1.396402415819       -3.101697320574
 C         -0.059266322390       -1.597500529181       -1.714519395241
 O          0.172436355798       -1.608980083023        3.619014551682
 O          0.404292674857        0.133292358785       -4.808868506362
