21
Frame 4
 N          0.028608473673        0.696943104025        3.905921597182
 N         -0.086029160776        1.417507931420        1.756283429509
 H          0.455612976747        0.730663665632        4.814281331496
 H          0.100253716712        2.805377265683        3.345660680472
 H         -0.215580347589       -1.845948849297        0.798613584328
 H         -0.103054454614        1.721775650700       -0.695487599284
 H          0.005177178623        2.040564400249       -3.127486419186
 H          0.307108600928       -2.201577954393       -3.719707283340
 H          0.117656586121       -2.605153151640       -1.287728178916
 C          0.090556436674        1.749595252610        3.024719679969
 C         -0.214273625378       -0.005666603867        1.779618159486
 C         -0.178947429206       -0.528738041190        3.144788933580
 C         -0.132218640899       -0.788040570198        0.608775278612
 C         -0.012036984691       -0.457002219188       -0.737790826208
 C         -0.072117039742        0.854631031613       -1.352559230725
 C         -0.034849149235        1.024797309110       -2.719521329416
 C         -0.055570079316       -0.071064969007       -3.651860736689
 C          0.184565716949       -1.386999722488       -2.981591434434
 C          0.099317307957       -1.574071283834       -1.666855390357
 O         -0.202001305811       -1.655402212662        3.633648408715
 O         -0.082178777126        0.077809966721       -4.871722654794
