21
Frame 4
 N         -0.107058721202        0.715402988958        3.840521147313
 N         -0.086395291941        1.435218413628        1.716332791861
 H         -0.105212304885        0.693730501229        4.862333367567
 H         -0.042553443975        2.860225511655        3.315340082200
 H          0.199738716321       -1.860084906190        0.902918988214
 H          0.224183585961        1.573926943687       -0.526664188394
 H          0.024262629240        1.984787965515       -3.065867928804
 H         -0.220048260997       -2.195985767680       -3.684430320065
 H          0.147365649607       -2.620279309357       -1.261749491299
 C         -0.034775145999        1.827023956425        2.970331607865
 C          0.015803300926        0.039584032870        1.694644241522
 C         -0.110290881949       -0.476110757860        3.034611817473
 C          0.170899496593       -0.823326186353        0.583320221401
 C          0.151617635948       -0.534658969678       -0.770052858077
 C          0.216126244330        0.814576595297       -1.295525347051
 C          0.108137017409        1.008914872325       -2.642422897066
 C         -0.100471490944       -0.016523019713       -3.585873209124
 C          0.033500136604       -1.389770501050       -3.041538867601
 C          0.123166711594       -1.590343781178       -1.690168832327
 O         -0.200507540137       -1.619237702675        3.441948364274
 O         -0.407488042504        0.172929120144       -4.798008689881
