21
Frame 4
 N          0.135851011520        0.654171179624        3.852412116887
 N         -0.077229352545        1.448716448065        1.748794226941
 H          0.310610629616        0.623863780301        4.855847683226
 H          0.221667821526        2.753281964037        3.442438243382
 H         -0.027766435151       -1.806315656446        0.811393869464
 H         -0.155516360456        1.710272176458       -0.653701968246
 H         -0.148165713426        2.048747955534       -3.110010644368
 H          0.308718329518       -2.260260034493       -3.670248927438
 H         -0.018091142806       -2.585541591986       -1.176735615699
 C          0.062992164313        1.775125837094        3.003940393184
 C         -0.175096749738        0.067143665644        1.761563962978
 C         -0.108550665024       -0.503282050037        3.064160225562
 C         -0.145015372912       -0.752941731838        0.589473958579
 C         -0.134823725281       -0.445170268852       -0.781923253948
 C         -0.139409142649        0.904758067678       -1.350978863827
 C         -0.140550857684        1.024784750005       -2.723896752419
 C          0.050661990330       -0.085326043446       -3.674814664095
 C          0.149897005975       -1.410377888733       -3.022037271808
 C          0.006718132396       -1.547953275311       -1.627852098481
 O         -0.201097477085       -1.632130960826        3.560652528096
 O          0.224195909565        0.018433677526       -4.898477147970
