21
Frame 4
 N         -0.071910653810        0.675530454395        3.825122639421
 N          0.037005166894        1.464773623614        1.730424139487
 H         -0.115948887884        0.681900140099        4.856685907974
 H         -0.056656787574        2.770126166016        3.406754928110
 H          0.138063036448       -1.781717029389        0.850133621715
 H          0.095321684178        1.691137791693       -0.644580111787
 H          0.009950612364        2.052430325254       -3.080549590248
 H         -0.055925202222       -2.213498604326       -3.717677299297
 H         -0.019725345274       -2.629383615244       -1.221288547346
 C          0.025209565560        1.778552756830        3.008936347323
 C          0.113796077221        0.041842632465        1.704381931261
 C          0.046676965765       -0.506535390964        3.069280022843
 C          0.051713449038       -0.773534199352        0.584679129696
 C         -0.020170359143       -0.486217846623       -0.746333040894
 C         -0.005073006940        0.870541515107       -1.327734625578
 C         -0.128921586419        1.065762567339       -2.682017755753
 C         -0.045234343935       -0.110854266938       -3.620718195358
 C         -0.017077201606       -1.396746252739       -3.001854126899
 C         -0.031366779196       -1.608525544681       -1.668351810940
 O         -0.050155828266       -1.636430597685        3.515407979514
 O          0.100429424800        0.050845375129       -4.840701543244
