21
Frame 4
 N         -0.129564409391        0.632018851298        3.907790419074
 N         -0.086328169316        1.395714566700        1.760007358403
 H          0.136746640073        0.718755958396        4.879406212889
 H          0.068499763011        2.754745119878        3.393825627990
 H          0.082513929940       -1.773701004960        0.756543965489
 H          0.026994648115        1.757320254094       -0.689838938585
 H         -0.010142638646        2.034430777577       -3.193494401917
 H          0.029198718446       -2.270112878496       -3.635500760291
 H         -0.077565035159       -2.550419991164       -1.223235375876
 C         -0.055432696958        1.720371243724        3.011328002922
 C         -0.032000233233       -0.003447303255        1.762581424648
 C         -0.053514808301       -0.550311526780        3.113022342550
 C          0.073417388754       -0.692506743388        0.622106268563
 C          0.028013476542       -0.420394524208       -0.755504222678
 C          0.077667497626        0.903060035694       -1.358596422850
 C         -0.029990643589        1.044910581043       -2.725392705631
 C         -0.028332486332       -0.120766873302       -3.651591013249
 C          0.061682798712       -1.374446744866       -3.026796335303
 C          0.089098144841       -1.547210881476       -1.680183649049
 O         -0.098580875905       -1.664162892477        3.598476408924
 O         -0.072381009229        0.006153975969       -4.864954206022
