21
Frame 4
 N         -0.173089326712        0.740749109161        3.844443307903
 N         -0.072618241597        1.405542338669        1.712957233435
 H          0.095633103492        0.849691728251        4.800757294715
 H         -0.110659224420        2.732963573568        3.320315145848
 H          0.082310112674       -1.881121659316        0.883656872405
 H          0.112769845874        1.641382994538       -0.616316579439
 H          0.101577633370        2.007406751797       -3.062592038243
 H          0.005931608427       -2.220469783172       -3.746331480411
 H         -0.066183418056       -2.585510079560       -1.364850150976
 C         -0.061762218515        1.746952803922        2.946181438336
 C         -0.012894319479       -0.012787945257        1.760297641516
 C         -0.011862805997       -0.524115059393        3.152019294349
 C         -0.049476265715       -0.835849643471        0.647156715157
 C         -0.021177616618       -0.500566188356       -0.741533429766
 C          0.074517105908        0.802872249529       -1.308345372983
 C          0.094252844892        1.027185401527       -2.637338269030
 C          0.023594684414       -0.009421622367       -3.643182648774
 C         -0.068026495521       -1.370542055557       -3.040432759167
 C         -0.057613922516       -1.560698694064       -1.689822104747
 O          0.190527450364       -1.608624485939        3.660718509870
 O         -0.075750534268        0.154960265491       -4.877758619997
