21
Frame 4
 N          0.058177680066        0.760614497924        3.868751924592
 N         -0.034844394783        1.452300789942        1.762884723994
 H          0.007760003659        0.747322655528        4.886710280438
 H          0.187990333403        2.818273052670        3.346733082120
 H          0.001224998419       -1.887268762999        0.907428358737
 H         -0.170355995485        1.646922896430       -0.608054175473
 H         -0.019684531234        2.032689987134       -3.020260853242
 H          0.041472446733       -2.244265197180       -3.820532872287
 H          0.055086061467       -2.664912800666       -1.460274880353
 C          0.006443041126        1.816930183661        2.997481849421
 C         -0.074838731043        0.023396061203        1.734035390153
 C          0.007722945302       -0.465681984016        3.146915830579
 C         -0.024388986903       -0.819931695821        0.628047048071
 C         -0.051640844520       -0.534564686770       -0.763324826253
 C         -0.171858391230        0.795305034936       -1.299872275252
 C         -0.111670185148        1.028029851619       -2.613422817993
 C          0.061445486596       -0.057609429607       -3.614837638057
 C         -0.048197906038       -1.403699006156       -3.120230386282
 C         -0.027209687185       -1.610489564401       -1.762379951835
 O         -0.000395212500       -1.577370997635        3.660069034683
 O          0.307761869297        0.144009114204       -4.855866845763
