21
Frame 4
 N         -0.012161445737        0.753513060129        3.819538416093
 N         -0.095051425973        1.436372533022        1.693614674501
 H          0.226685959315        0.721669424926        4.802967139686
 H         -0.209102038775        2.851555349522        3.314368508753
 H         -0.029202463592       -1.902379309580        0.980614422714
 H          0.058611521952        1.580261864806       -0.510313838031
 H          0.243850132390        2.033433067814       -2.987473377083
 H          0.164027949402       -2.146196027263       -3.803026652232
 H         -0.144087088669       -2.683700547321       -1.405398436279
 C         -0.096640065501        1.811143301384        2.941372587412
 C          0.015550799600        0.052912744827        1.720518333148
 C          0.109202353257       -0.459907976721        3.065164428483
 C         -0.083457754756       -0.812674792796        0.679393789707
 C         -0.183700606789       -0.558624914189       -0.734154362742
 C         -0.064524920307        0.790230848755       -1.242387893884
 C         -0.057173983498        1.055817711798       -2.646529956345
 C          0.013369276463       -0.020839476110       -3.610312416728
 C         -0.083916305437       -1.416082505016       -3.047308160359
 C         -0.138463836724       -1.621889622327       -1.717154798358
 O          0.204028728580       -1.591335532668        3.522490703012
 O          0.162155214799        0.126720797007       -4.835983111469
