21
Frame 4
 N         -0.061384210282        0.641179584765        3.917888909563
 N          0.027953979572        1.472420879857        1.821856240736
 H         -0.027749037751        0.674372686399        4.910918318883
 H         -0.025943804448        2.837860445911        3.417187129138
 H          0.268934611360       -1.779951303980        0.804737293054
 H          0.014956477145        1.721166194447       -0.690244982519
 H          0.025349817699        2.019205479405       -3.075200623280
 H         -0.030516789488       -2.235479955879       -3.731343605238
 H         -0.136971343115       -2.632899583580       -1.327931732791
 C         -0.033175342207        1.783841854690        3.086095990789
 C         -0.006274653604        0.080704878440        1.733229709593
 C         -0.044733790107       -0.488499193265        3.065119807448
 C          0.173605542125       -0.711485347779        0.611064967693
 C         -0.005849991503       -0.492203223993       -0.770956598067
 C         -0.027584740241        0.839935032180       -1.341809591510
 C         -0.099494492924        1.025502140818       -2.714568305150
 C         -0.017950786986       -0.123081773455       -3.630898567576
 C         -0.125912875496       -1.423713453640       -3.055949160480
 C         -0.034223289144       -1.603110594962       -1.706595711626
 O         -0.021685441249       -1.636020396327        3.528223806167
 O          0.188650160644        0.030255649948       -4.850823294826
