21
Frame 4
 N          0.089262636656        0.724075871508        3.835466185153
 N          0.182849537517        1.447303067975        1.693529514834
 H         -0.088534827263        0.772514953031        4.826042484360
 H          0.265738154450        2.829530385384        3.387004914966
 H         -0.122160844706       -1.898532376749        0.871520185111
 H         -0.192461311036        1.589041655347       -0.592110785909
 H         -0.233996928654        2.034841404654       -3.019393727102
 H          0.286742474625       -2.170317089112       -3.768606635393
 H          0.116756391145       -2.643202322430       -1.271566706875
 C          0.151658760880        1.795815520987        2.978271931713
 C          0.043197174369        0.007521256662        1.749733246817
 C         -0.058709994445       -0.464823775669        3.128974668971
 C         -0.104591873676       -0.803316781104        0.623452976547
 C         -0.072444858157       -0.548401514188       -0.754978358622
 C         -0.120834547421        0.774933967884       -1.316969803225
 C         -0.119449565600        1.053873440524       -2.640526926998
 C          0.048394263785       -0.050688652806       -3.646264364492
 C          0.112888085102       -1.399984217081       -3.060162384412
 C          0.047789049582       -1.621045250743       -1.715363034095
 O         -0.273381892218       -1.599734726536        3.549937684723
 O          0.041290115067        0.170595182462       -4.857991066072
