21
Frame 4
 N          0.095362390088        0.661512730962        3.882649850752
 N         -0.041460374099        1.498981873338        1.817084888435
 H          0.062480701516        0.662595780894        4.910952614183
 H          0.206516629297        2.768380957835        3.416931199618
 H         -0.125638366421       -1.784533687276        0.948134389522
 H         -0.209529448687        1.606997129350       -0.689609665743
 H         -0.178066159254        2.049391414357       -3.156996823885
 H          0.050182869737       -2.257274702207       -3.725231343989
 H          0.102858568743       -2.563346041863       -1.192564162557
 C          0.047642322853        1.762816651462        3.062547631211
 C         -0.163779358920        0.087860904416        1.701994664134
 C         -0.042804172465       -0.478020783925        3.042402081117
 C         -0.060778018145       -0.749267141892        0.606723779721
 C         -0.067091024633       -0.511115271486       -0.772480025656
 C         -0.047586421223        0.790777517996       -1.373098235382
 C          0.068577911799        1.095664893479       -2.682090450012
 C          0.056632321510       -0.065114910792       -3.633924098445
 C          0.070158557088       -1.423331307178       -3.038593887502
 C          0.036264039263       -1.612793872486       -1.683530405528
 O         -0.033549746637       -1.625927029476        3.448612944504
 O          0.173606778591        0.085744894490       -4.889914944498
