21
Frame 4
 N          0.133912342814        0.764352259378        3.856217110050
 N         -0.227799503124        1.380011788004        1.716226145545
 H         -0.007890136418        0.833719542605        4.887213096627
 H         -0.071724071879        2.787496877347        3.267171795879
 H         -0.014001657273       -1.895239176527        0.862809765324
 H         -0.016323198469        1.690625917669       -0.656151818364
 H          0.189607051876        2.027102533170       -3.033131870874
 H         -0.111330144378       -2.113419954605       -3.877196617633
 H         -0.088489247226       -2.661353955205       -1.332580579746
 C         -0.151538391862        1.745971321475        2.981922190842
 C         -0.057083783708       -0.055065230948        1.744376107011
 C          0.044790328266       -0.493800220875        3.187783890646
 C         -0.006768499234       -0.826636795906        0.640029771843
 C          0.073215612304       -0.530638198881       -0.765696069165
 C          0.071502062709        0.800648183989       -1.325356809948
 C          0.100026746419        1.013293366775       -2.683649842011
 C          0.020119441449       -0.041151755566       -3.629844153893
 C         -0.023079119162       -1.398782654240       -3.048353576416
 C          0.088559709907       -1.659693137330       -1.711090522099
 O          0.141492136890       -1.575261231950        3.755744440763
 O         -0.087197679903        0.207820521621       -4.836442454381
