21
Frame 4
 N         -0.122990989369        0.740591565805        3.929021626627
 N          0.010567627220        1.415689125287        1.751664443637
 H          0.016686655867        0.742856375757        4.935257491322
 H         -0.064166219091        2.774471015773        3.314952233974
 H          0.124477003604       -1.833215929168        0.889721895086
 H          0.211866571208        1.621978436058       -0.633230907158
 H         -0.009393245892        1.999253556439       -3.042374352129
 H         -0.095726801651       -2.180781116248       -3.798486421076
 H          0.103167521317       -2.585847804822       -1.373871183282
 C         -0.044244102853        1.769169686878        3.013804109404
 C          0.100526594506        0.021876717422        1.747435022982
 C         -0.037757066974       -0.451678086248        3.128766165002
 C          0.125497945556       -0.777541685572        0.633420332739
 C         -0.013925878713       -0.517803012718       -0.769970254025
 C         -0.031464953815        0.809024580356       -1.300316141879
 C          0.002725839450        1.026485351062       -2.655615186177
 C         -0.069172279085       -0.096711308080       -3.636641163311
 C         -0.026748712239       -1.385240056252       -3.058551335396
 C          0.011107810755       -1.563063119757       -1.738111997304
 O         -0.145342812862       -1.600681316019        3.547933052580
 O         -0.045690506938        0.071167024046       -4.884807431615
