21
Frame 4
 N         -0.069199188840        0.701979172287        3.892529738471
 N         -0.040920882271        1.433580719664        1.750005241453
 H          0.025444342833        0.686928519653        4.927296393898
 H         -0.056450606557        2.775847539833        3.445247092655
 H          0.045368077280       -1.832460891427        0.991496061990
 H         -0.125237541994        1.676772095748       -0.685854102668
 H          0.053399570984        2.070148787233       -3.110543768145
 H         -0.089871366903       -2.250369521364       -3.760643905898
 H         -0.064350900545       -2.572422265578       -1.316087568945
 C          0.024008324373        1.790953855353        3.007209507985
 C          0.000286864246        0.034158471818        1.735314621981
 C          0.075117116728       -0.462552915850        3.133278625591
 C         -0.043097194579       -0.797295956233        0.628806649084
 C         -0.007337067694       -0.512275095405       -0.785249422427
 C         -0.054377623290        0.829958234765       -1.361519083437
 C          0.000186317247        1.050236131623       -2.728223901729
 C          0.049094525186       -0.099450522186       -3.690642817893
 C         -0.034444375346       -1.420053319272       -3.051241597775
 C         -0.084619398587       -1.585660199139       -1.696167890188
 O          0.149168892741       -1.620495893118        3.550586244044
 O          0.247832114987        0.102473051597       -4.875596118047
