21
Frame 4
 N          0.038070730090        0.735678489634        3.805352081418
 N          0.126504184522        1.401733917117        1.699753522153
 H          0.102455282984        0.820292673756        4.811901508288
 H         -0.021078868346        2.783601361683        3.279341771112
 H         -0.000641157646       -1.926160741820        0.857509860672
 H         -0.142687138566        1.604983046871       -0.528498554451
 H         -0.110964044234        2.086074741914       -3.099515622143
 H          0.047075894792       -2.230656779044       -3.782807195520
 H          0.030665880444       -2.630020035603       -1.282211409528
 C         -0.003139064415        1.784716787905        2.936759753283
 C          0.088247865838       -0.028517726493        1.725115484852
 C         -0.019060930293       -0.475805808883        3.126037096229
 C          0.001379003660       -0.848353475185        0.592624482532
 C         -0.104302200406       -0.518197036019       -0.774555956779
 C         -0.062245313117        0.815248861343       -1.256001881764
 C         -0.081008732172        1.056845693244       -2.618715123408
 C          0.073956106197       -0.034795144026       -3.581512511136
 C         -0.041114252500       -1.406006032313       -3.044577942300
 C         -0.072686023418       -1.627373824042       -1.702659078698
 O         -0.118484590637       -1.592409925791        3.653561483985
 O          0.269057367221        0.229120955751       -4.816901768798
