21
Frame 4
 N         -0.063838652455        0.643487252349        3.922711354396
 N         -0.156113110692        1.431499454866        1.821634651193
 H         -0.033074168956        0.618130659022        4.942932890564
 H         -0.196658980938        2.748108500655        3.470738276375
 H          0.126372618477       -1.751864894087        0.842458798999
 H         -0.153426121284        1.774914344303       -0.819024188148
 H          0.299287911247        1.978670215008       -3.227228737167
 H         -0.250588756015       -2.231034327314       -3.641855199973
 H         -0.284704797039       -2.527912692830       -1.232182555395
 C         -0.147927058815        1.725340156577        3.077602283239
 C          0.052523662106        0.011581528289        1.786955936722
 C          0.234142016817       -0.497085750843        3.131268455385
 C         -0.013869744340       -0.722789320381        0.601361334624
 C         -0.170155992076       -0.418945303758       -0.774767262142
 C         -0.021109747842        0.862240681121       -1.422476293035
 C          0.076854469219        1.019515787272       -2.788578496271
 C          0.117797264481       -0.103401643741       -3.674950465237
 C         -0.067762928103       -1.377583253812       -3.001200509860
 C         -0.105963551015       -1.576406518046       -1.676016414190
 O          0.460586828206       -1.625245547177        3.566264403118
 O          0.297628839017        0.018780672529       -4.905648263198
