21
Frame 4
 N         -0.136805666122        0.692810217659        3.900760388865
 N          0.282693295874        1.399491093305        1.813599418528
 H         -0.195944950266        0.737299489450        4.920551699526
 H          0.211387612310        2.808211724815        3.408303590589
 H          0.023045619111       -1.884246088414        0.800443629001
 H         -0.035976998457        1.695189385306       -0.692099397855
 H         -0.279774189431        2.022795896621       -3.122225477870
 H          0.058705787863       -2.280353224296       -3.678383888920
 H          0.244878474426       -2.560620611876       -1.257245460636
 C          0.140992630799        1.750801503458        3.035166728827
 C          0.123970743359        0.000390882943        1.751473775233
 C         -0.154714759941       -0.470269710241        3.102192506227
 C          0.066761742967       -0.810381408966        0.623323311013
 C          0.196597281966       -0.462581969578       -0.767046205038
 C          0.056340195491        0.833334061090       -1.349496080799
 C         -0.108554294084        1.012354643702       -2.697875358161
 C         -0.050666987737       -0.066415412574       -3.710149432546
 C         -0.005216843331       -1.391612425810       -3.041867570553
 C          0.135252903995       -1.543475175881       -1.682373801315
 O         -0.406637498280       -1.604833857192        3.583916329880
 O         -0.166334100511        0.122110986478       -4.940968703994
