21
Frame 4
 N          0.109072874860        0.685056023554        3.986688649794
 N          0.060737129490        1.490293083508        1.867872796653
 H         -0.107565770109        0.656927953155        5.000026670603
 H         -0.001571075856        2.800456634839        3.497123832152
 H         -0.061587895622       -1.834050263348        0.785973711832
 H         -0.045940214716        1.687887448631       -0.728334748229
 H          0.052378843905        1.962520468078       -3.224156221379
 H          0.058435446828       -2.276300460031       -3.638299786556
 H          0.116429652879       -2.542017710695       -1.328432367544
 C          0.094567398502        1.756816201627        3.112657535669
 C          0.046026015656        0.063063832486        1.781789958030
 C         -0.040828168945       -0.489866792187        3.116143802165
 C          0.036071040756       -0.740155941969        0.609456831955
 C          0.023608786277       -0.447450516053       -0.767205766110
 C         -0.077876296090        0.858513214277       -1.400023654568
 C         -0.056623268951        1.011717839788       -2.748736313451
 C         -0.047195422554       -0.123042477067       -3.706261458386
 C          0.049949407522       -1.394468727597       -3.049205346714
 C          0.080233656006       -1.510692500255       -1.713003079040
 O         -0.180026342680       -1.633896728681        3.505495664381
 O         -0.108295797157        0.018689417941       -4.959570711257
