21
Frame 4
 N         -0.085049398609        0.691911970833        3.899464921105
 N         -0.093604681665        1.378756000825        1.777397432805
 H          0.113219981858        0.746877419278        4.889772662233
 H         -0.388550922575        2.787974526212        3.328890065340
 H         -0.007947285462       -1.815407253553        0.948997794745
 H          0.171581355586        1.651264199669       -0.638778393414
 H          0.147940895579        1.994914421672       -3.160109286482
 H         -0.251833885060       -2.236326457895       -3.706504057152
 H         -0.204921246965       -2.556547063989       -1.342753054579
 C         -0.200847250754        1.747078705756        3.036917226524
 C          0.081581996791        0.019125169682        1.778054249012
 C          0.082396369367       -0.485454880029        3.142997404300
 C          0.084470155620       -0.766212760996        0.649585959706
 C          0.122593210887       -0.468350038959       -0.763319384638
 C          0.162958796106        0.828130613397       -1.365329033464
 C          0.126574608383        1.006738185540       -2.707926759207
 C          0.011512008630       -0.047518541847       -3.678300100226
 C         -0.003072053919       -1.383901602662       -3.064945998630
 C         -0.023346404566       -1.572332420780       -1.697196260861
 O          0.223654233059       -1.652752671779        3.591770884381
 O         -0.069310482292        0.132032479625       -4.918686271497
