21
Frame 4
 N         -0.126992930633        0.722322210744        3.788896807285
 N          0.098730471914        1.424957496345        1.644046932379
 H         -0.120526929956        0.822613930810        4.820072505765
 H          0.062670959479        2.789957640016        3.329120060189
 H          0.037254859101       -1.864099813053        0.942171692248
 H          0.072303719900        1.652190268342       -0.621511022590
 H         -0.224728942278        2.030636195108       -3.000947663206
 H         -0.071923624603       -2.126443511807       -3.905603733988
 H         -0.041027529358       -2.707716230887       -1.299273787942
 C         -0.052758378438        1.785339630706        2.879450680409
 C          0.128940159936       -0.006898848715        1.729184860968
 C         -0.050979011336       -0.500689017596        3.101191760643
 C          0.094803060235       -0.841277809109        0.620726649122
 C          0.069628162508       -0.583581057295       -0.745514801662
 C          0.068960238375        0.767627786441       -1.266086826164
 C         -0.043961623076        1.028850250823       -2.585072000338
 C          0.033087347404       -0.023967900872       -3.592265996195
 C          0.011757623273       -1.386666165091       -3.060487037973
 C         -0.029390697739       -1.664041426833       -1.696440929826
 O         -0.001840895377       -1.575307975334        3.771944945587
 O          0.085993960670        0.256194347256       -4.853603094712
