21
Frame 4
 N          0.054231868079        0.690647941106        3.901034929007
 N         -0.079465458355        1.528623201287        1.796822519905
 H          0.037170635746        0.755224111323        4.916196913133
 H          0.143255231365        2.750862142845        3.615518088469
 H         -0.213083030551       -1.820023336589        0.891531121813
 H         -0.170161296532        1.679865435594       -0.689961339144
 H          0.018716522851        2.015236506012       -3.194061934647
 H          0.171652243304       -2.233426759673       -3.773808703168
 H         -0.048081564411       -2.645186545722       -1.377361634012
 C          0.078938042238        1.775528326890        3.087191372827
 C         -0.121618031042        0.097321002874        1.748749400250
 C          0.072554584398       -0.465780924347        3.090490429049
 C         -0.069661491890       -0.741298114459        0.604631995996
 C         -0.072723493766       -0.470414288967       -0.766795510924
 C         -0.126422455917        0.812230065759       -1.354103176495
 C         -0.078154781917        1.016064825480       -2.709839291018
 C          0.026291377883       -0.103205454324       -3.654933379601
 C          0.140007357436       -1.434422003661       -3.024853104554
 C          0.028720343312       -1.602528594348       -1.678195037253
 O          0.076263994540       -1.660468665635        3.513317061227
 O          0.131569403228        0.055151128555       -4.941570720859
