21
Frame 4
 N         -0.166041610788        0.602720179602        3.871820155378
 N         -0.131186228464        1.481676879007        1.846187589127
 H         -0.042095241259        0.562830701205        4.867656980881
 H         -0.287124946205        2.717493109232        3.539518558523
 H          0.136749459278       -1.725686552987        0.782356662606
 H          0.318731791572        1.773919000439       -0.763054385344
 H          0.200552978966        1.976011624587       -3.286512843725
 H         -0.122391109121       -2.322556333941       -3.616489857003
 H         -0.091501988325       -2.491523851650       -1.188413086534
 C         -0.143425275711        1.757312853498        3.095905334821
 C          0.102568694632        0.101033874130        1.731086322275
 C          0.080636610853       -0.512509586425        3.057599778022
 C          0.086636073923       -0.697922178932        0.617619880253
 C          0.142346649160       -0.394304919652       -0.727259903442
 C          0.129506391572        0.891027540840       -1.386927639492
 C          0.167708092740        1.025962551907       -2.761135157540
 C         -0.075946964135       -0.130077704955       -3.654275879595
 C         -0.127451132904       -1.430078319106       -3.014376589433
 C         -0.056933361229       -1.517346154652       -1.623049345483
 O          0.141375350465       -1.659907111633        3.494045443500
 O         -0.262714235021       -0.008075600514       -4.882302017793
