21
Frame 4
 N         -0.061321030330        0.675269525466        3.898318686342
 N          0.029908038308        1.412847426674        1.747101564549
 H          0.034885874224        0.681400436829        4.881998639406
 H          0.253325210912        2.746020927850        3.379535370255
 H          0.034651697994       -1.853806613757        0.815001216257
 H         -0.093920605438        1.738081458204       -0.707153867764
 H         -0.142519506754        2.052162462822       -3.141798234339
 H          0.097246510208       -2.339226461478       -3.573714706760
 H          0.088593659895       -2.529459800851       -1.230336091522
 C          0.074162199709        1.767370160400        3.002610153948
 C         -0.080477125572       -0.006707566724        1.728292172936
 C         -0.095538645973       -0.501502261872        3.112390390569
 C         -0.052722283617       -0.766069853274        0.608483498284
 C          0.076530510881       -0.430108585238       -0.741122762897
 C         -0.039133725356        0.865202606136       -1.336660914831
 C         -0.015309590048        1.010959909006       -2.715055875283
 C          0.003473458963       -0.093030263579       -3.679272276602
 C          0.146540170643       -1.385412290858       -3.041103074835
 C          0.133553391452       -1.502235690647       -1.681818513040
 O         -0.261182338584       -1.652419650447        3.562339622938
 O         -0.130745871516        0.110664125339       -4.888034997609
