21
Frame 4
 N          0.173129285024        0.703098123643        3.833786578134
 N          0.038583261601        1.432103818569        1.700439974332
 H          0.068288268953        0.705434718048        4.838075929607
 H          0.272917026113        2.772854749822        3.350158512128
 H         -0.127931824887       -1.916194266122        0.929216249956
 H         -0.341027360444        1.646458869846       -0.681915034910
 H         -0.198405015096        2.038143887585       -3.123536563474
 H          0.260407790168       -2.140677769620       -3.753437154284
 H          0.042669579219       -2.645124246960       -1.285862551359
 C          0.143847469624        1.768319453489        2.957414455844
 C         -0.052099184954        0.024486842816        1.721156460922
 C          0.005599458696       -0.472523185910        3.106610589793
 C         -0.095410965932       -0.831152220881        0.633963527204
 C         -0.226491923650       -0.531677073933       -0.752845637450
 C         -0.296083391157        0.795665370426       -1.338487381678
 C         -0.080308670642        1.063865078824       -2.667733640839
 C          0.165194026124       -0.023602964451       -3.592555438755
 C          0.090480548544       -1.369964082267       -3.021957247282
 C         -0.063321690493       -1.576341180471       -1.661360437602
 O         -0.143069942221       -1.575110319174        3.656394063250
 O          0.363033255408        0.131936396720       -4.847525253539
