21
Frame 4
 N         -0.015599665335        0.717242116684        3.846710178668
 N          0.058781397044        1.502937663089        1.753972831912
 H         -0.109221194446        0.730489628681        4.871935948471
 H         -0.087989580460        2.704383634112        3.548762141080
 H          0.069929126687       -1.869854128172        0.872425074915
 H         -0.068915900240        1.697371297149       -0.750663365826
 H          0.000869661421        2.045641272135       -3.126021631896
 H         -0.103239892450       -2.246465119061       -3.661001609965
 H         -0.077009657397       -2.639510785616       -1.317706049724
 C          0.027333191752        1.784261631327        3.034320292875
 C          0.028032435850        0.090493488212        1.740163581352
 C          0.068671664179       -0.468514919494        3.077205675708
 C         -0.032687254565       -0.783093679463        0.625890202116
 C         -0.064137062893       -0.473111897334       -0.752535773213
 C          0.021894249613        0.817742023310       -1.347414294815
 C         -0.016249322011        1.021370178455       -2.690634035926
 C          0.043972208395       -0.071371862805       -3.629592097439
 C         -0.032254902491       -1.376365083691       -3.036417172016
 C         -0.012868398180       -1.618292090256       -1.702267672596
 O          0.122490100659       -1.635792278545        3.479225620756
 O          0.178198794867        0.070438911282       -4.836357844434
