21
Frame 4
 N         -0.022392826746        0.705628800251        3.803042147276
 N          0.162325384238        1.465974997601        1.690435585214
 H         -0.259336148327        0.709716745857        4.781876139967
 H          0.064283257088        2.806132800645        3.382514917007
 H          0.171467297818       -1.840627294135        0.928130546468
 H         -0.151629078394        1.678245955077       -0.602515753538
 H         -0.193399805133        1.999529502000       -3.025089246036
 H         -0.087532822365       -2.212272126689       -3.733180779594
 H         -0.078388253569       -2.633144006689       -1.292959845316
 C          0.051607388970        1.784164651950        2.973926816593
 C          0.091364691924        0.058372197313        1.690602159409
 C          0.010705114206       -0.472250290266        3.074330974367
 C          0.106129727387       -0.784099025708        0.652065457320
 C          0.105934484360       -0.535488378266       -0.750098009036
 C          0.052293456727        0.791296065066       -1.260789094999
 C          0.004870313436        0.993505799344       -2.638664958799
 C          0.071080193449       -0.054065677245       -3.622249302993
 C          0.018199978498       -1.373202445888       -2.992548095404
 C         -0.025381550568       -1.568213156898       -1.662320359757
 O         -0.134927533319       -1.659081380066        3.461865832104
 O          0.042726730319        0.139876266746       -4.858375130253
