21
Frame 4
 N         -0.014389859333        0.662934565055        3.826633255005
 N          0.295209996795        1.486117279154        1.736642410571
 H         -0.531570213356        0.743636220334        4.652513429728
 H         -0.032252435379        2.747390810477        3.466107411760
 H          0.091497719066       -1.807425381145        0.925756418153
 H         -0.098479428346        1.608774940484       -0.579073295314
 H          0.132796669598        2.073773500312       -3.025979337230
 H          0.051921222796       -2.139959781692       -3.693181090072
 H          0.044585161865       -2.670774514530       -1.239773111277
 C          0.105597634912        1.742627526011        2.981099284682
 C          0.270696884029        0.101804632214        1.670189283615
 C          0.046122174179       -0.452420555597        3.026284527720
 C          0.072012977134       -0.773394471767        0.586016459102
 C         -0.017515045929       -0.502208386085       -0.774509095027
 C          0.040193875126        0.812279432358       -1.304129141017
 C         -0.032770163903        1.041103129175       -2.657312851046
 C         -0.149510935701       -0.090109256375       -3.562989442975
 C          0.009114162052       -1.383507123541       -2.968155116098
 C         -0.041952961446       -1.660285652487       -1.657453373230
 O         -0.035123433061       -1.610092521865        3.407387131681
 O         -0.206184001095        0.069735609508       -4.816073758730
