21
Frame 4
 N         -0.044360469296        0.720202289126        3.840134543563
 N          0.253451569622        1.463807970704        1.740007117075
 H         -0.314758272696        0.701337376343        4.835642071687
 H          0.349112647883        2.798207641560        3.369069450698
 H         -0.008493384684       -1.819003820602        0.945205846763
 H         -0.004363493915        1.544906005364       -0.534651386478
 H         -0.413209511910        2.059482331398       -2.967663343554
 H          0.135143560569       -2.207969033924       -3.816561361094
 H          0.276012881727       -2.621930076100       -1.287114653233
 C          0.221959835640        1.808629880044        2.984148506128
 C          0.093717741287        0.086987628173        1.708490583511
 C         -0.163188324599       -0.428974923297        3.039308848224
 C          0.072915561334       -0.797846542039        0.598513147286
 C          0.127458987674       -0.559151547673       -0.806897543731
 C          0.010784191390        0.774693693800       -1.288874440445
 C         -0.142887814514        1.049032578804       -2.641901546271
 C         -0.098638717956       -0.073560224353       -3.573062125447
 C          0.048026790361       -1.432647855023       -3.060831017056
 C          0.185908687534       -1.665167134455       -1.729711247067
 O         -0.477206257450       -1.552513831840        3.463591021902
 O         -0.107386207999        0.151477593991       -4.816842472461
