21
Frame 4
 N          0.060720368879        0.653209266764        3.902351678516
 N         -0.288432102819        1.495993214137        1.830986810159
 H          0.335713210627        0.622914166691        4.872195916539
 H         -0.019911903875        2.782823488834        3.537825982028
 H         -0.172390508291       -1.779194528873        0.890313115009
 H         -0.249085086017        1.668841359321       -0.702835434557
 H          0.041842178223        1.993181442882       -3.200303770440
 H         -0.033591537670       -2.241019298706       -3.632445565788
 H         -0.109667765309       -2.547815230007       -1.284099883453
 C         -0.066553427241        1.774419162627        3.114397946555
 C         -0.153936946037        0.090472646149        1.737409756664
 C          0.079710506873       -0.520945473379        3.068274303271
 C         -0.147225276214       -0.704889710657        0.638338162353
 C         -0.105746039157       -0.420717412745       -0.783222843944
 C         -0.036120996466        0.866187395744       -1.398325180611
 C          0.148999722108        0.999601459895       -2.748723566342
 C          0.166084911870       -0.095145774674       -3.660562450639
 C          0.065305649398       -1.367184114752       -3.037727299991
 C         -0.045493372343       -1.529527361625       -1.693446154733
 O          0.255002962835       -1.665577402336        3.457878067881
 O          0.274775450627       -0.075627295291       -4.908279588478
