21
Frame 4
 N         -0.102500700876        0.720048143247        3.900576450365
 N         -0.027517701856        1.391045597876        1.763071736476
 H         -0.081627184126        0.730527491485        4.881143775135
 H          0.040068103788        2.825276567810        3.324669582643
 H         -0.130672633789       -1.895313555869        0.813263077435
 H          0.061501368238        1.652686506320       -0.676587263790
 H         -0.002672587829        2.039604702967       -2.995826526742
 H          0.075668158756       -2.251709750375       -3.789858434076
 H         -0.158772306352       -2.634845254471       -1.428383355979
 C         -0.058312816138        1.799357738915        2.985459861133
 C         -0.052860538565       -0.003729946502        1.756884346481
 C          0.146089507253       -0.443927495309        3.119053240492
 C         -0.066759065452       -0.816230347869        0.646172585492
 C         -0.180140361299       -0.559844987049       -0.758407950714
 C         -0.068393865876        0.783525109563       -1.292338810866
 C          0.051149061926        1.020894123758       -2.627198095463
 C          0.082134467740       -0.052929483306       -3.642573711674
 C          0.099298856085       -1.388079125599       -3.096612511887
 C         -0.094966617139       -1.628148753855       -1.740107661253
 O          0.369733250648       -1.488938948648        3.749379606543
 O          0.099553604865        0.200731666909       -4.891779939747
