21
Frame 4
 N          0.168959533675        0.791285702094        3.775616698221
 N         -0.283513587129        1.448475363253        1.711796714646
 H          0.476660946986        0.805146951065        4.767650861643
 H          0.049027010030        2.804094313771        3.387948922619
 H         -0.007950164975       -1.843529989523        0.917194558761
 H         -0.248328515015        1.491926380676       -0.466769358725
 H          0.075237173025        2.040315699407       -2.992698658537
 H          0.157965583130       -2.208179982786       -3.775456351251
 H         -0.006926436134       -2.677263035300       -1.412519925497
 C          0.000700148852        1.815724845787        2.922798777286
 C         -0.154227367142        0.035229956747        1.704564504581
 C         -0.013939934401       -0.472072476035        3.084481224281
 C         -0.171210900950       -0.794672073969        0.642815291442
 C         -0.182065775589       -0.582352335994       -0.749930177383
 C         -0.203437044727        0.767875591708       -1.268684453225
 C          0.057982506574        1.011915886183       -2.598288354159
 C          0.123930435036       -0.037740283587       -3.607378329535
 C          0.029570169993       -1.377725718124       -3.090439690852
 C         -0.053023275793       -1.656909179726       -1.737028119381
 O         -0.092410564583       -1.596599017510        3.597935738579
 O          0.277000059137        0.235053401862       -4.813609873514
