21
Frame 4
 N          0.155637583185        0.626975001180        3.952109577985
 N         -0.087149198828        1.486119135199        1.871923823770
 H         -0.225856492248        0.618468123601        4.925540475357
 H          0.126592110846        2.769039442563        3.417019313163
 H          0.088081171939       -1.808450205386        0.929671115624
 H          0.032811795078        1.775644762743       -0.751562076885
 H         -0.060570074366        1.992972869528       -3.172691293320
 H         -0.177304622761       -2.287389205491       -3.813769699767
 H          0.201561003773       -2.508278934195       -1.160466140605
 C         -0.026329213656        1.769439841400        3.143378230569
 C         -0.048176327297        0.085657305123        1.733532741168
 C         -0.020215776082       -0.465618081696        3.110170888507
 C          0.035115901633       -0.765016245493        0.620280234138
 C          0.066036398383       -0.446375046565       -0.780810173201
 C          0.027383344375        0.870859935604       -1.366491845029
 C          0.056862158127        1.004440807688       -2.737393606783
 C         -0.035675681168       -0.135880962516       -3.680628430624
 C         -0.017929978565       -1.432238237332       -3.104967370567
 C          0.117666346242       -1.569916311533       -1.717508807904
 O         -0.152475595787       -1.620286594419        3.477715398414
 O         -0.056064852824        0.039832599996       -4.895052354013
