21
Frame 4
 N         -0.171684930681        0.652578712693        3.865741860837
 N          0.141331308370        1.438117215133        1.810944020315
 H         -0.052689891224        0.683057841678        4.865655096631
 H         -0.216681246590        2.751936742813        3.399669570197
 H         -0.126418870123       -1.751588042919        0.901123284420
 H          0.130540937827        1.726040238883       -0.704647479010
 H          0.066330835741        2.046049908067       -3.119087370208
 H          0.009302101888       -2.263791989760       -3.684659581979
 H         -0.097263109083       -2.554807106654       -1.280422710758
 C         -0.066711821733        1.747135623815        3.020426230899
 C          0.173612678401        0.041610078784        1.746979388948
 C          0.078596248103       -0.529231531480        3.096028143735
 C          0.116709545772       -0.744390925520        0.618985445507
 C          0.047486159022       -0.428721766140       -0.760565063177
 C          0.106515901479        0.871324198218       -1.366261113190
 C          0.001429718392        1.045963249991       -2.741404372597
 C         -0.058554976005       -0.102428557861       -3.641077599744
 C          0.055418902087       -1.402768864671       -3.041201388646
 C         -0.015122600699       -1.559696596860       -1.697205461912
 O          0.061787017827       -1.672266262049        3.607108707131
 O         -0.183933908771        0.005877833837       -4.896129607398
