21
Frame 4
 N         -0.208938689782        0.714164484569        3.772544433495
 N          0.283934340596        1.399957072988        1.686117859001
 H         -0.344195294355        0.908554937555        4.759737954385
 H         -0.128266471020        2.760935074738        3.205395845855
 H          0.092520955490       -1.887492611008        0.852149081369
 H          0.157292519344        1.634070599558       -0.575400941536
 H         -0.052356092169        2.079924247866       -2.975341597915
 H         -0.288660909886       -2.180434337833       -3.743270731581
 H          0.159641461400       -2.657235269577       -1.283743021641
 C          0.068932160880        1.774858587790        2.926749491951
 C          0.200967528671        0.019032059180        1.743724105508
 C         -0.009674786337       -0.508335547407        3.104588345652
 C          0.146008977025       -0.835192100144        0.656360121034
 C          0.181417028508       -0.537236298260       -0.720357761980
 C          0.132008226681        0.766072249113       -1.270792723083
 C         -0.069251363185        1.049821312134       -2.585105727871
 C         -0.116174766992       -0.035344458526       -3.552721898070
 C         -0.006589832456       -1.391893695287       -3.039491385165
 C          0.135065237460       -1.621224718460       -1.685460879881
 O         -0.142303080829       -1.664756404767        3.491386624408
 O         -0.191377149045        0.211754815780       -4.767067193934
