21
Frame 4
 N         -0.125885889149        0.670015690340        3.867891100114
 N          0.012435955138        1.468383897011        1.749129535137
 H         -0.010703910837        0.617216436564        4.839013576404
 H          0.004490669729        2.866375161557        3.245762901019
 H         -0.052182659488       -1.803417823078        1.006585312447
 H         -0.002871504430        1.642860920149       -0.524685545725
 H          0.096332459400        2.025160879326       -3.107000160567
 H         -0.151744954378       -2.205538758290       -3.812861491311
 H          0.066912381952       -2.578653537833       -1.230372984907
 C         -0.113047091981        1.795385409801        3.004578851528
 C          0.022159461467        0.052382485443        1.704979504101
 C          0.043627413858       -0.503480227962        3.050234968601
 C         -0.019083808744       -0.780872064201        0.623328497084
 C         -0.019993864036       -0.520837700669       -0.770444502158
 C         -0.104489734591        0.820270575500       -1.308092645175
 C          0.031487177835        1.069374539698       -2.634019214710
 C          0.022384143050       -0.077798935797       -3.599874158790
 C         -0.095736287007       -1.428636859062       -3.035520617149
 C          0.017885572287       -1.592261394578       -1.692457506170
 O          0.219313146956       -1.635809836416        3.487434905082
 O          0.158711322969        0.099881142498       -4.863610324855
