21
Frame 4
 N         -0.134890975659        0.638754985670        3.844738338470
 N          0.024775545627        1.434707437123        1.751402700868
 H         -0.063381994178        0.552535809828        4.824826926533
 H         -0.006386847782        2.750033565737        3.408194953345
 H          0.130342077890       -1.748119426879        0.889170199632
 H          0.158281532358        1.675728290313       -0.671034124982
 H          0.064169964871        1.999893485388       -3.199264884716
 H         -0.124901451242       -2.285741408539       -3.534097979818
 H          0.148801959066       -2.527179140032       -1.156234269460
 C         -0.042458241758        1.782192208544        3.005415319943
 C          0.006244328176        0.098272680472        1.717464794277
 C         -0.050030492579       -0.522773575114        3.030253441043
 C          0.080832947738       -0.703260062786        0.636874187718
 C          0.081144047286       -0.428858294726       -0.719302485204
 C          0.054982906101        0.850329868803       -1.366309304824
 C          0.010207413796        1.026455029449       -2.737755438581
 C         -0.043556325542       -0.086546662155       -3.659308462891
 C         -0.016177669013       -1.355910135046       -2.987843816324
 C          0.058803434693       -1.569231243402       -1.616004199069
 O         -0.111817954544       -1.679622583761        3.441155012796
 O         -0.224984205305        0.098339171111       -4.902340908756
