21
Frame 4
 N          0.132256026773        0.750199710931        3.813644903876
 N         -0.193060054689        1.470346689316        1.683615762461
 H          0.077747343332        0.609709363899        4.839360182878
 H          0.090957156803        2.798922688374        3.267217466017
 H         -0.067312249034       -1.895978565428        0.962182388771
 H          0.071765301185        1.667331153826       -0.567052292584
 H         -0.015689908818        2.057773432232       -2.965758678417
 H          0.187376692302       -2.283397828106       -3.750452732213
 H          0.001716907280       -2.593363067316       -1.278956369057
 C          0.001195643034        1.815879367978        2.934114122170
 C         -0.137933135103        0.041856924498        1.679824703505
 C         -0.014323331865       -0.461752186890        3.038725664848
 C         -0.171952004261       -0.862430146879        0.614270049865
 C         -0.098870105905       -0.482455773216       -0.735064889248
 C         -0.043746218247        0.863322577773       -1.253765199688
 C         -0.062152033575        1.030807630299       -2.624267135099
 C          0.024908704287       -0.070224824192       -3.578558768936
 C          0.028359718212       -1.408339014736       -3.078516318693
 C         -0.091659427511       -1.562619862397       -1.718693457642
 O          0.127969476646       -1.602952508714        3.518382063046
 O          0.152445499153        0.117364238748       -4.800251465862
