21
Frame 4
 N         -0.046438845549        0.686102434566        3.868709291298
 N          0.016107952088        1.461150676521        1.734033448883
 H         -0.348986774104        0.716338171079        4.844658507468
 H         -0.213085910172        2.794661532613        3.375883955442
 H          0.120308791935       -1.857779611289        0.823129979590
 H          0.492506819683        1.691857604433       -0.694329010720
 H          0.110799461719        2.023224957535       -3.116139446304
 H         -0.081117382889       -2.224091695665       -3.735164784432
 H          0.079915378197       -2.549562356774       -1.170388038156
 C         -0.124429004921        1.769940624601        2.986155493574
 C          0.114773599063        0.024956272426        1.714522956687
 C          0.003816844194       -0.522191202012        3.078091125081
 C          0.144839605600       -0.771248800380        0.608149280942
 C          0.115029518700       -0.462939612191       -0.746829554405
 C          0.259434836439        0.826366682111       -1.343019026550
 C          0.052155971844        1.037936389934       -2.696258794654
 C         -0.167668691983       -0.075584168661       -3.576743682264
 C         -0.167862989033       -1.418367178847       -2.976803538545
 C          0.054626041327       -1.567413391315       -1.653622294751
 O          0.022890265176       -1.685329650359        3.451841104647
 O         -0.437615487313        0.101972321675       -4.775876972830
