21
Frame 4
 N          0.063956041892        0.745545465661        3.874487179907
 N         -0.198937912604        1.351606870432        1.734174497576
 H          0.239112846447        0.746973311734        4.854643242516
 H         -0.267577164808        2.831847423744        3.231128649863
 H         -0.023941172908       -1.878138566840        0.862320640869
 H          0.179101654641        1.572449422321       -0.589718192077
 H          0.051043141980        2.087436891139       -3.099252042617
 H         -0.081407896666       -2.272529531649       -3.748345664685
 H         -0.050414557772       -2.633180227095       -1.362431181178
 C         -0.070203059495        1.797838621140        2.928939200164
 C         -0.105785285787       -0.006443091814        1.783720856334
 C          0.036628974647       -0.466457404421        3.171246708976
 C         -0.033522142315       -0.806852566457        0.628322984699
 C          0.024971126465       -0.563737355795       -0.764243819637
 C          0.093763771223        0.786400854650       -1.288772097809
 C          0.075955748052        1.088351703730       -2.626317446761
 C          0.034787948961       -0.011141608656       -3.634563711284
 C          0.026642614705       -1.373208762556       -3.069734654579
 C         -0.055967566029       -1.595461181528       -1.735883478410
 O          0.060936871033       -1.604208038172        3.688120541871
 O          0.000856018341        0.202907770432       -4.837842213740
