21
Frame 4
 N         -0.019105632630        0.711378068441        3.863391241174
 N          0.186356913949        1.422859267940        1.745220536292
 H         -0.284618700165        0.774977565295        4.840326417374
 H          0.124945554819        2.835523442947        3.345432243081
 H          0.075700472289       -1.828112473196        0.825173162098
 H          0.067400435279        1.603267983723       -0.541559943302
 H         -0.137041841925        2.020502502756       -3.059999319166
 H          0.049402512273       -2.229453787032       -3.780290904715
 H          0.180953160535       -2.644477000185       -1.328037177787
 C          0.117739910109        1.777756484204        3.029120017102
 C          0.036170306957        0.046686303571        1.724326528541
 C         -0.142881654071       -0.501076363227        3.080965370413
 C          0.096912653514       -0.769034406851        0.595024014052
 C          0.036779099834       -0.526040808536       -0.792896433856
 C          0.088685865131        0.812387292635       -1.288837837092
 C         -0.042608083250        1.019066395388       -2.622854618539
 C         -0.105193915595       -0.045591442657       -3.600171088504
 C          0.029633336366       -1.397504501551       -3.069249739184
 C          0.099510896734       -1.638335638426       -1.712462838049
 O         -0.233997803544       -1.589697377636        3.595505960365
 O         -0.224743486611        0.144918492399       -4.848125590298
