21
Frame 4
 N          0.042126176969        0.749961449136        3.853188080774
 N         -0.135179962270        1.422096178180        1.720145240353
 H          0.195177025826        0.763668355246        4.855098533060
 H          0.096484327467        2.824234264217        3.192222602392
 H          0.037712700407       -1.886698934648        0.888543467767
 H         -0.193883669805        1.598636015664       -0.587004991510
 H         -0.149734879096        2.132249729172       -2.973067163519
 H         -0.004484938857       -2.226024587921       -3.776117359722
 H         -0.147373462748       -2.646877301217       -1.365960594130
 C          0.014233551876        1.785033597912        2.946279141570
 C         -0.071017912706        0.000957967411        1.721567203164
 C         -0.010732050770       -0.464295031665        3.118744135265
 C         -0.004416996708       -0.860660109755        0.600084626184
 C         -0.055199850610       -0.560438292977       -0.785861044899
 C         -0.146943489110        0.790251257093       -1.284694594977
 C         -0.005493452456        1.092233455951       -2.623156343124
 C          0.171182936763       -0.057356011994       -3.581762078680
 C          0.004321564946       -1.404893402757       -3.040837508134
 C         -0.013701101172       -1.647775830857       -1.718167641407
 O          0.000377706703       -1.595577473531        3.639482921786
 O          0.376545775351        0.191274707340       -4.798726632211
