21
Frame 4
 N          0.024605101518        0.750223828442        3.859365896033
 N          0.091118920492        1.369376527124        1.710310470055
 H         -0.193676639425        0.873528984695        4.830461467434
 H          0.073648628988        2.779477507570        3.303202226321
 H          0.114939095236       -1.935062287616        0.843118030444
 H          0.082719720549        1.629910474644       -0.656838902807
 H         -0.061352037829        2.049571511060       -3.023300691256
 H          0.071653703526       -2.193425511655       -3.750167659369
 H          0.260790677517       -2.642258504010       -1.393231771011
 C          0.127580186740        1.754700760104        2.965351203694
 C          0.007060994358       -0.017404655080        1.754567370478
 C         -0.093385642086       -0.476756604761        3.153680097123
 C         -0.039726271638       -0.833397864689        0.646113826413
 C          0.034190999166       -0.543230954874       -0.723214669017
 C          0.050495304535        0.766202950902       -1.305122310327
 C         -0.018245266065        1.040502387068       -2.626688297459
 C         -0.140027739626       -0.010088169472       -3.621105561658
 C         -0.082567674032       -1.384478294504       -3.022010163987
 C          0.089164429152       -1.599723893844       -1.697073838649
 O         -0.250208066993       -1.581555566990        3.629064529390
 O         -0.148778424083        0.203887375887       -4.876481251846
