21
Frame 4
 N         -0.065367408349        0.684730975810        3.921332804715
 N          0.058341859462        1.432320540519        1.810138781254
 H         -0.216024411156        0.725105404214        4.927980439010
 H          0.087850898171        2.787408823364        3.505294544308
 H          0.052111914664       -1.869527482655        0.711422712844
 H          0.116926766071        1.738018058124       -0.756757102745
 H          0.053945840847        2.008165501841       -3.196611607140
 H         -0.029433281628       -2.255704837287       -3.775254086462
 H          0.138802332823       -2.547535603863       -1.180608978525
 C         -0.028417149082        1.787980344116        3.065652878606
 C         -0.004429159659        0.014711066553        1.758373272416
 C          0.031131524888       -0.520571288509        3.132908294796
 C          0.041637075495       -0.778769814623        0.590102144387
 C         -0.076954257155       -0.425537583429       -0.781746530992
 C         -0.052715438731        0.910877372592       -1.373020144367
 C         -0.039044217590        1.050922911738       -2.724089362137
 C         -0.080085084077       -0.139054050404       -3.646717332759
 C         -0.076350277263       -1.466184055455       -3.068304382011
 C          0.022248393328       -1.530842650403       -1.686695789404
 O          0.052063128107       -1.662477544773        3.649243464222
 O          0.013760950833        0.055963912530       -4.882644020015
