21
Frame 4
 N          0.196584915727        0.673449531474        3.804075325083
 N         -0.233467897667        1.443510823454        1.758582144270
 H          0.450757781913        0.658067490146        4.754512194326
 H         -0.015103466517        2.823273505481        3.348458898215
 H         -0.236991592885       -1.813389675832        0.852097996721
 H         -0.313311633089        1.723501580618       -0.665022253150
 H          0.113830854205        2.026747401781       -2.995961178002
 H          0.149104395739       -2.268645402895       -3.695852788099
 H         -0.130279517156       -2.572103959857       -1.321490214085
 C         -0.052070524923        1.803086524907        3.025301473765
 C         -0.164746853713        0.030987787225        1.749271482353
 C          0.077587930036       -0.513515314386        3.062221875280
 C         -0.270544630059       -0.758611794203        0.612602473630
 C         -0.268985036209       -0.487160849306       -0.753909101717
 C         -0.200748772333        0.849011934205       -1.295333829196
 C          0.005484779751        1.008610433078       -2.647864739229
 C          0.236251194065       -0.111325309041       -3.584187907078
 C          0.107793895499       -1.396988012391       -3.034141219416
 C         -0.112685104872       -1.550791899084       -1.709973289953
 O          0.249246537836       -1.630380722088        3.546897157263
 O          0.412292744653        0.062665926715       -4.810284500980
