21
Frame 4
 N         -0.151274694275        0.721458842643        3.840151551746
 N          0.195922469270        1.394665688361        1.731741212668
 H         -0.499277749600        0.725363775491        4.820759521599
 H         -0.228551831183        2.814780662862        3.308388581758
 H          0.185221976645       -1.900138049579        0.919545216356
 H          0.299180968952        1.684352875981       -0.634271884559
 H         -0.005298373953        2.033117711790       -3.147464771938
 H         -0.267673149443       -2.182010157007       -3.729883462444
 H         -0.006891214122       -2.640534645137       -1.304964083491
 C         -0.074708870262        1.787442960179        2.960324011272
 C          0.220579373617       -0.015563683075        1.746748191179
 C          0.064907849321       -0.500467430188        3.129287978977
 C          0.215061752474       -0.885879374068        0.644611886879
 C          0.153123708783       -0.480980304609       -0.761463653629
 C          0.199555385826        0.846634269388       -1.308729273897
 C          0.101569643978        1.054669008240       -2.695066935836
 C         -0.106353569643       -0.018939302757       -3.627932231413
 C         -0.175230227564       -1.383490137825       -3.027395209788
 C          0.001981273386       -1.611401352681       -1.667269575466
 O          0.097871435122       -1.611988600952        3.664221731105
 O         -0.219716157329        0.168907242942       -4.861338801077
