21
Frame 4
 N         -0.045407169410        0.688793099568        3.847300181136
 N          0.292241018092        1.437036332280        1.794714991699
 H         -0.201702825784        0.689161108179        4.868082255233
 H          0.419790355645        2.791827447317        3.308205945545
 H         -0.103712372331       -1.833010431996        0.781510917764
 H          0.001508288717        1.617866394731       -0.626916295687
 H         -0.232869076741        2.019250564306       -3.046034397974
 H          0.287380455826       -2.217226173171       -3.658288409863
 H          0.473548229419       -2.542417816142       -1.249228424308
 C          0.198546989590        1.787375679539        3.029535094448
 C          0.039566425532        0.061500607601        1.747244525084
 C         -0.182208752119       -0.458544330120        3.103254537594
 C          0.023547166203       -0.771575267721        0.606100500833
 C         -0.033203659681       -0.488664179044       -0.804838723856
 C         -0.155503477695        0.821919130497       -1.308958618546
 C         -0.245157405363        1.012017039567       -2.680221312805
 C         -0.085271726032       -0.055791952844       -3.631322839123
 C          0.034080102408       -1.427590336560       -2.997125408383
 C          0.086892390837       -1.596555969828       -1.662777061761
 O         -0.459817395776       -1.642366300862        3.467656820586
 O         -0.112247561338        0.106995354702       -4.887894277616
