21
Frame 4
 N          0.166494812773        0.712298858348        3.818467017353
 N         -0.282881909549        1.433493933114        1.708392356251
 H          0.178395931814        0.715591008800        4.812452320057
 H         -0.365090315384        2.776692954963        3.329334363806
 H         -0.101628175949       -1.850350532867        0.894977606614
 H         -0.124428217730        1.569128558459       -0.477554073561
 H          0.224109746073        1.997802796287       -3.127784384737
 H         -0.173211704489       -2.146746554629       -3.776176663060
 H         -0.301436019318       -2.592922454013       -1.247592491029
 C         -0.134675131208        1.779711086296        2.954427003188
 C         -0.031942521784        0.077529417152        1.698264562286
 C          0.220660345592       -0.456580729989        3.067699521509
 C         -0.110452431570       -0.781373574845        0.584477377381
 C         -0.045194051935       -0.514039074050       -0.764823794139
 C          0.058506966050        0.831633582457       -1.268669756388
 C          0.166910669656        1.042301047274       -2.635217623698
 C          0.107708246805       -0.070700698482       -3.584422920063
 C          0.009299313891       -1.403308010101       -3.017490626125
 C         -0.093460509512       -1.628850510181       -1.680536295270
 O          0.389650255941       -1.624802199034        3.520898503251
 O          0.242664699833        0.133491095042       -4.809122003628
