21
Frame 4
 N          0.064487785212        0.689350729662        3.848388445573
 N          0.263844684347        1.422004426455        1.731912460406
 H         -0.337883986743        0.663614297679        4.792890669762
 H          0.372548478222        2.775737791562        3.344038430378
 H         -0.062782174660       -1.830455010950        0.876062720261
 H         -0.254240937447        1.646563979369       -0.567003919830
 H         -0.265964661647        2.082681176970       -3.114731399242
 H          0.175175036229       -2.218482667616       -3.707667215620
 H          0.157930558276       -2.604747097078       -1.170097749842
 C          0.161072254002        1.784864208345        2.995804982674
 C          0.113219914148        0.031885337699        1.687570713334
 C         -0.075109030064       -0.466031719811        3.044835229403
 C          0.022792278369       -0.802359393845        0.604248024874
 C         -0.063234783763       -0.498737350809       -0.720690041641
 C         -0.152948734448        0.824818706958       -1.299824396287
 C         -0.141989058176        1.067837339821       -2.685233947351
 C          0.037112221580       -0.047313087171       -3.644300306110
 C          0.040423952122       -1.398122277540       -2.981749514497
 C          0.066791279866       -1.603539141177       -1.634866558288
 O         -0.238546246381       -1.609849543148        3.471914381676
 O          0.117301170956        0.090279294626       -4.871501009631
