21
Frame 4
 N         -0.159488390153        0.703114100769        3.837267530599
 N          0.213947411300        1.386180402680        1.754739749841
 H         -0.098973449917        0.791089719894        4.829425282666
 H         -0.026014226691        2.804160408692        3.336258452639
 H         -0.004845891726       -1.884096437761        0.919882934173
 H          0.078055677584        1.723667684748       -0.685617240458
 H         -0.125106739679        2.036238432918       -3.046095271532
 H         -0.139611107330       -2.266740728591       -3.681286207857
 H          0.122316153084       -2.642095590316       -1.371048838608
 C          0.018217945951        1.776883383282        2.975281355615
 C          0.049513653382       -0.020897285665        1.764222159901
 C         -0.112759666301       -0.523999293392        3.144662896307
 C          0.110434285037       -0.840084427788        0.635152073311
 C          0.155631158244       -0.489068218955       -0.767274433764
 C          0.122577729096        0.838561140480       -1.299336735493
 C         -0.018812014491        1.037294501783       -2.664247930711
 C         -0.100800629173       -0.032320746805       -3.691534889321
 C          0.061289299571       -1.398572266154       -3.074385720773
 C          0.088329512319       -1.585711922269       -1.737958179028
 O         -0.115190013119       -1.605172021106        3.729230635979
 O         -0.118710696990        0.191569163555       -4.907337623485
