21
Frame 4
 N         -0.174547624668        0.763993963242        3.864086133829
 N          0.181852311182        1.431114356515        1.753052448688
 H          0.120297098030        0.682464780007        4.844921189910
 H          0.288950290851        2.801612724051        3.425315080162
 H         -0.138575241146       -1.818532751779        0.847792153083
 H         -0.005575318699        1.582064736612       -0.595408350705
 H         -0.194713179748        2.055421238745       -3.006903786647
 H          0.329347170527       -2.215527971690       -3.713960991161
 H          0.196819939479       -2.651799989053       -1.278084528938
 C          0.102728216176        1.787765503818        3.016833558308
 C          0.025716108769        0.043914931314        1.701837026394
 C         -0.185247472150       -0.450255876221        3.093975426055
 C         -0.021965275236       -0.767600575979        0.613373990923
 C          0.009283286428       -0.541973473786       -0.773181909745
 C         -0.033625806899        0.777493788395       -1.302014615141
 C         -0.192677551624        1.011020089539       -2.674093584284
 C         -0.027380255230       -0.053807466718       -3.682567310044
 C          0.111230835301       -1.391542074358       -3.053699348868
 C          0.122087145730       -1.626316861742       -1.722615926754
 O         -0.342571431888       -1.567355088027        3.575531054668
 O         -0.171433245183        0.147846017114       -4.934187709732
