21
Frame 4
 N          0.126002097415        0.703937530066        3.848479733826
 N         -0.408946919653        1.352234540867        1.795926058047
 H          0.355486645537        0.831366679126        4.835738720339
 H         -0.310999973422        2.805709314314        3.349746027855
 H         -0.015532193273       -1.855001888388        0.840580785749
 H         -0.002005528939        1.700981132994       -0.622854272646
 H          0.416210128086        2.031450081209       -3.092366501443
 H         -0.194154924002       -2.229453788789       -3.712471768345
 H         -0.075701418079       -2.594363850945       -1.343227121134
 C         -0.178154167258        1.746349050503        3.022809664778
 C         -0.167415292689       -0.019544175280        1.776854670003
 C          0.061946037875       -0.519393614017        3.136374581749
 C         -0.067709922147       -0.790682796900        0.648189354548
 C         -0.030318886067       -0.469387286593       -0.736468745552
 C          0.041155162460        0.855867021993       -1.341497872128
 C          0.186329465066        1.052187707794       -2.674574476409
 C          0.074962954159       -0.073132858535       -3.655921768275
 C         -0.009067008963       -1.390433802488       -3.057138140186
 C         -0.027326497620       -1.548010647745       -1.697085573492
 O          0.265165183326       -1.647851721919        3.575855595768
 O         -0.039924941810        0.057173372730       -4.896948953053
