21
Frame 4
 N          0.079121209976        0.670414787942        3.881150287666
 N         -0.235595809301        1.502504864357        1.815985428077
 H          0.009799642764        0.556061131102        4.895082649615
 H         -0.213823742745        2.810172365732        3.462244912483
 H         -0.038154834873       -1.750757729596        0.851156617297
 H          0.079615980402        1.667167040198       -0.641299438683
 H          0.246453649132        1.966358146121       -3.212441967431
 H         -0.051144628119       -2.242412438315       -3.737157406310
 H         -0.093669505428       -2.578334385121       -1.223225302007
 C         -0.109854871182        1.792267224182        3.082814169931
 C         -0.002501672034        0.076563706622        1.736790915760
 C          0.169382227143       -0.483752328912        3.085351705369
 C         -0.102182233338       -0.688351010070        0.581081923694
 C         -0.089485974861       -0.462181548882       -0.781143869263
 C          0.010912310772        0.845586976511       -1.367435744519
 C          0.123308288321        0.997223647019       -2.717869487757
 C          0.069829011107       -0.118525807831       -3.657315747002
 C         -0.046708599934       -1.389267124993       -3.033852885304
 C         -0.109008999326       -1.560665913715       -1.666270030390
 O          0.305072910224       -1.653838143042        3.521000451112
 O         -0.001364358702        0.043766540692       -4.874647182339
