21
Frame 4
 N          0.240074299160        0.677093513711        3.856433537358
 N         -0.241111530916        1.447790310320        1.784503786091
 H          0.211388966379        0.790472703767        4.892257805523
 H          0.078972901439        2.739314956544        3.465700341756
 H         -0.164979181895       -1.836130617742        0.949925647166
 H         -0.101173084898        1.659498756384       -0.739075875488
 H         -0.116769430274        2.041966622459       -3.022749682100
 H          0.212733694305       -2.208161417350       -3.667159896115
 H         -0.028756546036       -2.555495344283       -1.287325333359
 C          0.108835406481        1.772853804240        2.996038186685
 C         -0.155429990851        0.022243869811        1.762151488459
 C         -0.002447670669       -0.517730738390        3.107995058565
 C         -0.192474833837       -0.782384945641        0.636793897678
 C         -0.124415669822       -0.503100734167       -0.779866324998
 C         -0.104109899308        0.788796813665       -1.400534373592
 C          0.014426377278        1.002200488979       -2.745673568760
 C          0.067992766780       -0.087456331794       -3.720349935916
 C          0.067818139808       -1.368595364346       -3.031684469981
 C          0.066679182063       -1.562719944921       -1.667540121654
 O         -0.045706069512       -1.637064191079        3.549895458396
 O          0.208452174326        0.116607789833       -4.939735625714
