21
Frame 4
 N          0.047956999480        0.750579907554        3.880499696368
 N          0.023141340623        1.405400128845        1.701274264919
 H          0.377698663610        0.754280663992        4.824825671744
 H          0.149051007770        2.863852027824        3.240458138436
 H         -0.176232383919       -1.897607428353        0.943922061981
 H         -0.289359724832        1.595350766458       -0.553654623266
 H         -0.078507585412        2.020915146081       -3.038697277996
 H          0.248177327002       -2.247707747525       -3.839160422556
 H          0.248915327631       -2.621726884608       -1.284466721727
 C          0.182768269097        1.805807770338        2.949539686689
 C         -0.142512650580        0.008249620105        1.733433094551
 C         -0.184147970537       -0.486395773266        3.110695211011
 C         -0.147225128207       -0.845169097597        0.625889495928
 C         -0.007106417215       -0.556211251033       -0.741120730782
 C         -0.114441561456        0.794626007590       -1.265153069990
 C         -0.061260200173        1.010160628967       -2.622400885748
 C          0.017537538102       -0.010095967631       -3.616389400001
 C          0.042570540547       -1.390898873572       -3.080174955330
 C          0.119748917071       -1.602102882190       -1.705342082365
 O         -0.319604129611       -1.607204908583        3.547204105935
 O          0.062831821009        0.255898146603       -4.811181257802
