21
Frame 4
 N          0.098584071815        0.664383219330        3.895799693275
 N         -0.074775760830        1.496195725905        1.813934567543
 H         -0.040223216928        0.588678336678        4.910804589700
 H         -0.162469329536        2.759497273943        3.471389602502
 H         -0.138467180232       -1.725228926725        0.871274771337
 H          0.195162288221        1.680032701711       -0.676850628382
 H          0.010304521598        2.026785389260       -3.139348413095
 H          0.000791929239       -2.328242432191       -3.641123823894
 H         -0.006640531442       -2.554936130931       -1.290403815875
 C         -0.010702502740        1.767115600348        3.085464268044
 C         -0.040230484092        0.086570675108        1.754199277588
 C         -0.021927230824       -0.481293657905        3.062043811141
 C          0.004430468046       -0.703469049367        0.583718153838
 C          0.066398064636       -0.421670066308       -0.798907674280
 C          0.046472784862        0.870247646211       -1.390718667255
 C          0.118276850537        1.027106321462       -2.727324723361
 C         -0.068058864955       -0.122486800459       -3.657427744459
 C          0.051197537344       -1.426016108676       -3.028100606054
 C          0.061664525343       -1.544667966905       -1.681938798242
 O          0.077859320614       -1.661633184792        3.475406595365
 O         -0.167647260678        0.003031434302       -4.891890435436
