21
Frame 4
 N          0.071596895044        0.707020967989        3.914003374206
 N          0.115972464687        1.426538337267        1.779710504854
 H         -0.082563628143        0.609033669085        4.919624037478
 H          0.073339446309        2.780074854092        3.422987921739
 H          0.006265757994       -1.822187453893        0.851896468276
 H         -0.064930391299        1.716678689253       -0.713563595950
 H         -0.294833029197        2.003335707976       -3.182908399911
 H          0.106082154038       -2.298197593727       -3.732250877320
 H         -0.064259867812       -2.576432975214       -1.251960265369
 C          0.142157213284        1.773383519267        3.020218802942
 C          0.033404011227        0.013726032482        1.756155320461
 C         -0.092338886841       -0.459947884972        3.137918656128
 C          0.006705158756       -0.761626373665        0.592085078536
 C          0.047532184578       -0.458356952301       -0.787237381391
 C         -0.038116229032        0.819051176172       -1.379416063966
 C         -0.032077651654        1.036516471708       -2.701417434758
 C          0.100832772358       -0.047902511397       -3.650098072159
 C          0.139228540285       -1.403989439102       -3.053046840498
 C         -0.005759473230       -1.557454869774       -1.696233948133
 O         -0.190812348466       -1.603024836048        3.639582037428
 O          0.022574907116        0.103761464802       -4.886049322592
