21
Frame 4
 N         -0.052955670528        0.731514302704        3.874502827911
 N         -0.065623487622        1.407502390848        1.734373660238
 H         -0.375096132629        0.780445244176        4.828325087959
 H         -0.314228709997        2.784461216810        3.228743255541
 H          0.212038752558       -1.859899695056        0.910489281297
 H          0.454293827933        1.579295026932       -0.614499684474
 H          0.231386040308        2.057813716556       -3.021116604606
 H         -0.302649060739       -2.176362912410       -3.857113349227
 H         -0.010732272348       -2.621670268133       -1.342246219800
 C         -0.157125682959        1.763293459434        2.965459347823
 C          0.069959885188        0.008669470487        1.766085906661
 C          0.085025733380       -0.465222788936        3.134509317513
 C          0.180436393528       -0.791681995809        0.683596027492
 C          0.192865667926       -0.546163685044       -0.744033644741
 C          0.247323332743        0.773714205562       -1.289761365600
 C          0.106100027942        1.039142220258       -2.630607696611
 C         -0.119278822938       -0.019555158906       -3.645916026092
 C         -0.142563748234       -1.364917389347       -3.053800561511
 C          0.054932394939       -1.579591810345       -1.698611707529
 O          0.135754234488       -1.612448680816        3.625414704177
 O         -0.429862702938        0.111663131033       -4.853792556422
