21
Frame 4
 N         -0.003787517177        0.734247274392        3.887428208856
 N         -0.013131193701        1.479628516079        1.715060939120
 H         -0.150747105138        0.752404524238        4.897796534090
 H          0.144711745431        2.772021086151        3.360170075022
 H          0.045153825388       -1.840040597926        0.917242620687
 H         -0.095525330786        1.566314336034       -0.619680205777
 H         -0.021932972718        2.035027597951       -2.995556908332
 H         -0.017671319797       -2.205615528947       -3.809888988886
 H         -0.024296935609       -2.604126479713       -1.330784088195
 C         -0.002112657443        1.793892542658        2.983043730152
 C         -0.064120349410        0.051810229615        1.720213092543
 C          0.064138833462       -0.480126441289        3.107089815145
 C          0.057584052680       -0.781438742200        0.614304726242
 C         -0.028402699805       -0.526154686610       -0.780839995464
 C         -0.112870839970        0.774003109110       -1.336812770243
 C         -0.008146468295        1.022914165438       -2.643786148366
 C          0.049789654308       -0.063494970415       -3.622579450445
 C         -0.013684583392       -1.393455504575       -3.069694442396
 C         -0.039557124450       -1.605787289194       -1.710388100985
 O          0.074984847344       -1.619192226628        3.597123437079
 O          0.159624139078        0.137169085830       -4.879462079847
