21
Frame 4
 N          0.006458066904        0.676052610364        3.907903727676
 N         -0.294290325153        1.465687730309        1.793787301255
 H          0.498082697071        0.671014662559        4.801088616494
 H         -0.017818712068        2.840357592459        3.341221920763
 H         -0.106565743734       -1.831887042458        0.903559591923
 H         -0.138099302236        1.664393708934       -0.640177952647
 H          0.063846895180        2.017868420082       -3.083106387153
 H         -0.144227044257       -2.179485514614       -3.775123210098
 H          0.037972758230       -2.590759898042       -1.312694490887
 C         -0.136445820654        1.819262571416        3.075222810901
 C         -0.147621602370        0.058959180103        1.735796604564
 C          0.008862873829       -0.493424768155        3.122449237001
 C         -0.146551456728       -0.786256321059        0.611988534523
 C         -0.093802007328       -0.521338995621       -0.768851979951
 C         -0.072656098613        0.779410422521       -1.324884199690
 C          0.029453478067        1.022999268984       -2.698897674296
 C          0.176401976278       -0.057942158051       -3.653651002896
 C         -0.022953042777       -1.377285117088       -3.057872156473
 C         -0.003654004846       -1.592114419302       -1.719745188245
 O          0.141883790786       -1.640067967654        3.636028313075
 O          0.361722624421        0.054556034310       -4.894042415840
