21
Frame 4
 N         -0.128852817025        0.701779067867        3.908118600345
 N         -0.073590691602        1.459378155269        1.767667478419
 H         -0.276533721122        0.774668100094        4.875652503970
 H         -0.403171437087        2.821101229190        3.313272711673
 H          0.306281322205       -1.865252953335        0.851084880522
 H          0.430703564155        1.585946550597       -0.551381716753
 H          0.255469684429        2.018225151461       -3.117828088152
 H         -0.421081895231       -2.214652899891       -3.740999175280
 H         -0.098306854813       -2.580244585403       -1.304138882091
 C         -0.222779646390        1.792853204717        3.017449578362
 C          0.130250513182        0.072260203042        1.741501610444
 C          0.054099431779       -0.515470801791        3.065631616329
 C          0.270874476338       -0.779771334392        0.618339129995
 C          0.202519010183       -0.518776895311       -0.752221577562
 C          0.339350860252        0.796696896891       -1.322008431279
 C          0.186114320099        1.032517025909       -2.685761483438
 C         -0.208239550251       -0.055894597151       -3.601864505568
 C         -0.043318097511       -1.441413784605       -3.067812081697
 C          0.056961362103       -1.567191239311       -1.687416037647
 O          0.095285953338       -1.657267317521        3.482164205607
 O         -0.452035787033        0.140510823677       -4.809450336199
