21
Frame 4
 N         -0.074371309979        0.701150316103        3.863636216775
 N          0.223621998413        1.476477255893        1.724790810161
 H         -0.189161903382        0.713265549954        4.857246283482
 H          0.404081704296        2.747069842688        3.358590456260
 H          0.132868767301       -1.804840760241        0.922507577294
 H         -0.232353157831        1.581806508792       -0.583502342959
 H         -0.167436826068        2.059509881412       -2.995570605583
 H          0.255944649745       -2.150684981301       -3.776552990132
 H          0.062029448647       -2.599461638233       -1.269385895007
 C          0.177831888073        1.749259648744        2.982790563386
 C          0.009894001954        0.060067152564        1.687767899594
 C         -0.085191868085       -0.446851362351        3.096622645916
 C         -0.078266544441       -0.770577579373        0.587387776514
 C         -0.047493125769       -0.534123812928       -0.765613796965
 C         -0.154103753255        0.789345415987       -1.328533257283
 C         -0.154676385460        1.005776914687       -2.665117561148
 C          0.020209970870       -0.073973370905       -3.643159177350
 C          0.138689710485       -1.368279777753       -3.040362677302
 C          0.056532174995       -1.619364498363       -1.684564518175
 O         -0.280879206293       -1.586320404939        3.553151456502
 O         -0.017770234216        0.070749699562       -4.882128863977
