21
Frame 4
 N         -0.179739576592        0.658931025284        3.918823155714
 N          0.100493223845        1.524617425946        1.835122144926
 H         -0.057792983747        0.599525936069        4.901500231439
 H          0.042217185368        2.754147235956        3.559885504308
 H         -0.069804538915       -1.751278312292        0.931741904302
 H          0.153442576354        1.726293422416       -0.744555530846
 H         -0.028676957341        1.977454919549       -3.272747206066
 H          0.004582267672       -2.366362194861       -3.696781519662
 H          0.187531786896       -2.529484122710       -1.284272289598
 C         -0.011059384611        1.742905639329        3.122345511158
 C          0.061117765328        0.141528662812        1.735941000250
 C         -0.051837864450       -0.500757295903        3.117190819331
 C          0.026252154929       -0.688224784464        0.623543442185
 C          0.001562082670       -0.457740954668       -0.735930311732
 C          0.047398923090        0.841276266737       -1.385381525726
 C         -0.011040231350        1.003088939868       -2.737756204879
 C         -0.089311004315       -0.124524677899       -3.705573283707
 C         -0.024590451112       -1.428837736271       -3.081529492486
 C          0.075016748879       -1.543200282582       -1.717276499967
 O         -0.040057486937       -1.672734919704        3.534942585286
 O         -0.135704235662        0.093375807388       -4.919232434229
