21
Frame 4
 N          0.008858474783        0.598759744135        3.988911862072
 N         -0.080618486086        1.521705272470        1.901307823787
 H          0.188459010723        0.601201042815        4.947009575820
 H         -0.137804358338        2.813154744133        3.611591462816
 H          0.129544029728       -1.732186084840        0.950325162799
 H         -0.064712845204        1.771029124968       -0.815559444998
 H          0.029378234602        1.951936384803       -3.271818768896
 H         -0.095895402058       -2.283247506714       -3.710545764519
 H         -0.063419127157       -2.565842936746       -1.246367807977
 C         -0.004005348888        1.793114299996        3.169501994622
 C          0.020926957920        0.106688273558        1.750384690993
 C          0.030799782295       -0.516663091311        3.063167028373
 C         -0.029289791552       -0.684635670995        0.613871622431
 C         -0.074383474480       -0.373548002839       -0.766122243213
 C         -0.103579891036        0.892178227065       -1.433370939865
 C          0.014185596212        0.976302012540       -2.811803020365
 C          0.073553566622       -0.162245261437       -3.718228089527
 C         -0.056700365485       -1.422829036651       -3.031845229612
 C         -0.013978797032       -1.551566259704       -1.660105985277
 O         -0.026391465663       -1.725132569963        3.389783120893
 O          0.255073700096       -0.008172705281       -4.920087050357
