21
Frame 4
 N          0.026678935330        0.645126013349        3.888529501376
 N          0.009041127669        1.528018427023        1.763026242341
 H          0.014976904159        0.652864736056        4.917003378981
 H          0.285140548413        2.736528115874        3.528668474790
 H         -0.104904261357       -1.777409054747        0.885162693486
 H         -0.152147690941        1.672282846524       -0.675371254096
 H         -0.096024591163        1.965936330707       -3.122263079959
 H          0.251625822096       -2.254026730661       -3.691912720172
 H          0.128332665728       -2.557768441701       -1.272897555933
 C          0.065684210066        1.808289442157        3.051752503765
 C         -0.073622726812        0.130169177433        1.706922055941
 C         -0.023242793706       -0.457119687624        3.051736700399
 C         -0.149683743959       -0.743285249466        0.608467439257
 C         -0.236373106046       -0.490198986772       -0.794461376352
 C         -0.119799771022        0.824828773324       -1.339877603990
 C          0.057066251895        0.993181441705       -2.681667384888
 C         -0.006975163400       -0.092549773588       -3.627045797247
 C          0.145934145214       -1.420807730088       -3.028689990364
 C         -0.016233453302       -1.572696606012       -1.714659640646
 O         -0.046537759293       -1.643121825045        3.436264273314
 O          0.041064450434        0.051758781552       -4.888686860003
