21
Frame 4
 N          0.059803458299        0.719073756614        3.885503447186
 N         -0.020843850828        1.474267511483        1.778670694584
 H          0.142567075670        0.755821298300        4.901547959434
 H          0.030117945854        2.772041966183        3.404460279668
 H         -0.235887639651       -1.828325457323        0.893945209993
 H         -0.079391283853        1.638273993651       -0.709739387002
 H         -0.106814355863        2.024863332093       -3.153002970054
 H          0.104094727848       -2.297210074905       -3.828951579803
 H         -0.055626723622       -2.597060572492       -1.289587975934
 C         -0.007220547957        1.770609007438        3.005718647510
 C         -0.030193065552        0.021534636717        1.736030870653
 C          0.033983544390       -0.508680247078        3.150625406388
 C         -0.075060905893       -0.770889942625        0.642301070158
 C         -0.083210961298       -0.510202372639       -0.750994047178
 C         -0.123070681562        0.775441848127       -1.338629521614
 C         -0.070542338711        1.030541363635       -2.687173933921
 C          0.124420351108       -0.035961935893       -3.644525376502
 C          0.123208472246       -1.400264959085       -3.086573956267
 C         -0.079639894688       -1.586233023384       -1.700888787167
 O          0.101926935431       -1.636464969014        3.638181236469
 O          0.247379738632        0.188824840198       -4.846917286602
