21
Frame 4
 N         -0.056377073160        0.714317097425        3.874664966649
 N          0.191594402169        1.355338099687        1.760034886155
 H         -0.138713127744        0.866323168887        4.874773971050
 H          0.348374346735        2.826737175656        3.270444210992
 H          0.028476143791       -1.912762658347        0.875895884624
 H         -0.291962509953        1.623047873820       -0.613913725310
 H         -0.105473769191        1.999834483206       -3.072711503704
 H          0.137686823010       -2.206014156140       -3.806776864732
 H          0.298695041673       -2.560536661584       -1.378005612163
 C          0.201749540129        1.763695919597        2.990592950044
 C          0.077773123996       -0.011660242745        1.744959902765
 C         -0.207498925209       -0.495102840635        3.166721002976
 C          0.028503412377       -0.845166380216        0.652911949375
 C          0.087353040850       -0.552437838761       -0.732372471356
 C         -0.074688733129        0.783391217175       -1.276818518979
 C         -0.060619745336        1.013550214935       -2.626788349170
 C         -0.034094172001       -0.042511925008       -3.665281660564
 C          0.084315145855       -1.341051292058       -3.101318322355
 C          0.154912675353       -1.563010753846       -1.738986677714
 O         -0.441902202141       -1.583962826627        3.664128947744
 O         -0.228103438072        0.167982325581       -4.862154966326
