21
Frame 4
 N         -0.155237995173        0.678430301907        3.924973046348
 N          0.054723576894        1.374233867342        1.772798523019
 H          0.067232160700        0.695457554192        4.909193660089
 H          0.140426360656        2.766278977087        3.344445580552
 H          0.133594916810       -1.836442319648        0.692136868042
 H         -0.016200609836        1.692597641318       -0.665918774698
 H         -0.041350971488        2.001644881648       -3.174754947006
 H          0.000197194588       -2.233976716547       -3.660834177566
 H          0.157290648405       -2.540680386992       -1.271348841137
 C          0.037199606014        1.753350110475        3.021155606430
 C         -0.060666101356       -0.002765060679        1.756632672702
 C         -0.163646623812       -0.505374036214        3.135701459233
 C          0.127996327514       -0.774739797144        0.617739996147
 C          0.065115085121       -0.428293926982       -0.728031803068
 C          0.073869517100        0.853318401747       -1.345642532682
 C          0.019407329647        1.037700672198       -2.703423257655
 C         -0.058195984215       -0.118931463763       -3.677274685309
 C          0.077407224025       -1.384811035830       -3.019653724628
 C          0.127118794661       -1.502218760578       -1.648673861156
 O         -0.314680471779       -1.590672193645        3.630433019165
 O         -0.271599984476        0.065893290107       -4.909653826824
