21
Frame 4
 N          0.092922344167        0.706406780230        3.865019167709
 N         -0.322902665209        1.423039645881        1.743915546398
 H          0.279545274475        0.633252001262        4.862460401404
 H         -0.312300408111        2.801956679180        3.397484216146
 H          0.287187537661       -1.758721159415        0.889221667160
 H          0.121115828171        1.721030451111       -0.608610595583
 H          0.187060820062        1.973699802822       -3.130045599231
 H         -0.130250350273       -2.247515595783       -3.746675434273
 H         -0.314272838740       -2.605895891071       -1.276226271067
 C         -0.145973679370        1.775571934500        2.991882097152
 C         -0.131725603282        0.031364201902        1.724247110183
 C          0.101290010222       -0.483068323657        3.059961388895
 C          0.021888464060       -0.732025497913        0.621677322603
 C         -0.037652576959       -0.458983168158       -0.775032447454
 C          0.066865324396        0.847253527820       -1.298709659966
 C          0.049832164076        1.028277838270       -2.644844524520
 C          0.079202289687       -0.093219205908       -3.588586930755
 C         -0.030967434215       -1.443886861879       -3.032247946648
 C         -0.091503880506       -1.595007084664       -1.683599696241
 O          0.097594266313       -1.620652787060        3.445677971399
 O          0.133045113376        0.097122712528       -4.816967783311
