21
Frame 4
 N          0.102269864855        0.684631683515        3.878970054459
 N         -0.301656760932        1.419613271282        1.773555221152
 H          0.251686641716        0.739527875190        4.898955000884
 H         -0.369409498348        2.672070238982        3.489456221375
 H         -0.020625056746       -1.888140499384        0.817128923139
 H          0.139490937368        1.710869445187       -0.745226080720
 H          0.416334313394        2.012723623873       -3.156408974347
 H         -0.031405688005       -2.268189294497       -3.637711304346
 H         -0.135988488914       -2.484755610238       -1.238334173570
 C         -0.182640693670        1.710103444916        3.015847189729
 C         -0.155342234920        0.027253330249        1.739631027155
 C          0.154292117718       -0.459146145432        3.084847602307
 C         -0.116066207231       -0.827156732690        0.612824963607
 C         -0.180443649163       -0.432504936107       -0.743688480434
 C          0.082335875040        0.841481173398       -1.388436201842
 C          0.105324805985        1.012883240752       -2.752884365964
 C          0.066236504886       -0.103916704375       -3.655937871692
 C         -0.042295539541       -1.355712277342       -3.002759612068
 C         -0.141634020553       -1.496695622053       -1.652430476133
 O          0.383775124365       -1.579414275848        3.541257879201
 O         -0.024238347302        0.064474770623       -4.878656541893
