21
Frame 4
 N         -0.071131100164        0.689904455461        3.855275188632
 N          0.114985242339        1.426579218344        1.729038916899
 H          0.075938924181        0.728939274053        4.860410581214
 H          0.145313483595        2.776008941670        3.412159171842
 H          0.005053150777       -1.871876947038        0.875167576800
 H         -0.318706038052        1.700497672660       -0.702804556961
 H         -0.047085302000        1.975197438961       -3.098896763585
 H          0.014510829247       -2.183039631650       -3.695575677611
 H          0.081407366385       -2.622083284401       -1.363927913671
 C          0.098252165910        1.792147962557        2.981340215976
 C         -0.083835619099        0.061365553839        1.740301749171
 C         -0.093090019177       -0.449558765948        3.071764294124
 C         -0.014107872787       -0.799160773602        0.633183817138
 C          0.015582009189       -0.492774247280       -0.723886360117
 C         -0.102316510195        0.829978072678       -1.297172318936
 C         -0.020806154826        0.996931655860       -2.636479271048
 C          0.112298167916       -0.100297990692       -3.587683695435
 C         -0.004962275165       -1.398106871255       -3.023387421308
 C          0.014553173940       -1.543743683071       -1.658493844761
 O         -0.059229241957       -1.638693869331        3.465088878460
 O          0.137375619943        0.121785818185       -4.835422566823
