21
Frame 4
 N          0.302861919560        0.711204747893        3.883041798323
 N         -0.175107315641        1.400788529462        1.807575182253
 H          0.024202104911        0.736859294286        4.853175970787
 H          0.145769723648        2.806531128645        3.338834374512
 H         -0.152413416025       -1.879828426032        0.939123904229
 H         -0.182617612930        1.686053021634       -0.644738943654
 H         -0.005021892985        2.033699543392       -3.129902918071
 H          0.297379216805       -2.263485576899       -3.781493082447
 H         -0.089295760909       -2.555789735427       -1.303217717408
 C          0.094633083204        1.775366532380        3.053679240663
 C         -0.192454300332       -0.002909440181        1.777175726063
 C          0.011363369851       -0.491108518262        3.159303568805
 C         -0.120510043596       -0.812207398618        0.622842917886
 C         -0.056459488475       -0.507770897429       -0.763818438175
 C         -0.157381257292        0.808696498470       -1.327616104284
 C         -0.026862461898        1.059491232074       -2.689031731380
 C          0.118852668313       -0.048693284931       -3.683069630710
 C          0.132163785369       -1.379661321374       -3.089762489269
 C         -0.055702038134       -1.559520800313       -1.749601770245
 O          0.017238565925       -1.606799168835        3.649234695065
 O          0.069361150632        0.089084040066       -4.921734552943
