21
Frame 4
 N         -0.058934004702        0.649540850647        3.929570088724
 N          0.075320574481        1.515697945007        1.842457005559
 H         -0.333264056368        0.620523426922        4.908764237231
 H         -0.096876073358        2.765199043102        3.502504701618
 H          0.188332206525       -1.762076287527        0.814504765907
 H          0.135733694711        1.698289277487       -0.673415070355
 H          0.025129676999        2.003448727179       -3.264593670865
 H         -0.265656615685       -2.300123108495       -3.740801417566
 H          0.043005239693       -2.511060910490       -1.197242022531
 C         -0.053855572027        1.766198286467        3.090903130396
 C          0.101564153613        0.063462611251        1.774453265830
 C          0.015113228499       -0.477067175520        3.131007314606
 C          0.178306842892       -0.714196176171        0.617201257146
 C          0.187449783193       -0.422356730440       -0.784529656099
 C          0.091610403110        0.865735878363       -1.370187152700
 C          0.094701991546        1.002412983025       -2.762769592365
 C         -0.064906138561       -0.136406047414       -3.662828368755
 C         -0.111424988000       -1.438064047871       -3.063346300941
 C          0.070511715105       -1.552766491241       -1.702304011270
 O         -0.046404851258       -1.677942944406        3.526667787296
 O         -0.175457210408        0.041550890127       -4.916016290866
