21
Frame 4
 N          0.075449846390        0.717064911121        3.807475739571
 N         -0.116333883119        1.403562456078        1.646789647381
 H          0.272613090064        0.701231693518        4.800622104181
 H         -0.266416050932        2.812370735741        3.200964341049
 H         -0.012325964141       -1.909965729590        0.997226874737
 H         -0.084395086451        1.663773116049       -0.586871980983
 H          0.061950605673        2.057948180234       -2.968603623413
 H          0.049797097146       -2.231536631285       -3.710783936064
 H         -0.286477541858       -2.611115067761       -1.310659477425
 C         -0.060251168855        1.796659492342        2.911420222805
 C          0.024138570001        0.031327376539        1.692958485358
 C          0.151486003569       -0.460935037021        3.025313604552
 C         -0.136165640743       -0.833846873709        0.654882497121
 C         -0.171466504867       -0.532623148550       -0.723237805628
 C         -0.058427353682        0.790569737915       -1.261407592819
 C          0.071394593492        1.059776552857       -2.580569063978
 C          0.147429162216       -0.021720535223       -3.579643955104
 C          0.062926764406       -1.390392610022       -3.036823936085
 C         -0.162259757713       -1.589054010383       -1.696668981501
 O          0.176756651425       -1.633192805037        3.534154198525
 O          0.260576567979        0.180098196187       -4.816537362281
