21
Frame 4
 N          0.142230985604        0.671397071288        3.949936416126
 N          0.002092053888        1.546936573976        1.805616463220
 H         -0.074019978061        0.634167884203        4.953358408153
 H         -0.064744376181        2.770639535360        3.474881674944
 H          0.094477822284       -1.790876752616        0.996274213697
 H          0.210635466901        1.653386947463       -0.726154086207
 H          0.032881103442        2.089672164708       -3.155704516322
 H          0.055336031053       -2.240328078269       -3.751013170769
 H          0.137294773392       -2.622250697999       -1.412043021234
 C          0.021158903767        1.783232206934        3.092069461259
 C         -0.100375630561        0.100536462725        1.757155494021
 C         -0.067833244418       -0.471885680462        3.149363673528
 C         -0.057773101089       -0.767463843682        0.631925372450
 C          0.014730416630       -0.513576306628       -0.796523256885
 C          0.076101913042        0.807483868230       -1.392582084497
 C         -0.041271796455        1.044520348980       -2.745180482740
 C         -0.085050891256       -0.100783574912       -3.688534395003
 C         -0.032523655281       -1.413483139817       -3.056101633581
 C          0.091843761538       -1.587886912529       -1.732077978729
 O         -0.163275362113       -1.612471307569        3.591872141546
 O         -0.191915196125        0.019033230617       -4.946538692977
