21
Frame 4
 N         -0.255796150977        0.727337792306        3.829040898048
 N          0.139605601394        1.416570529201        1.751429254641
 H         -0.069459315916        0.772253288497        4.810688201210
 H          0.234374061194        2.799553557386        3.354847196225
 H          0.061441479299       -1.892505939348        0.919867117083
 H         -0.173583696656        1.672355528307       -0.630838647916
 H         -0.012040145083        2.022628537540       -3.061497858346
 H         -0.010364329747       -2.247538977904       -3.634318663203
 H          0.159522777594       -2.614717049210       -1.335461742015
 C          0.062972525678        1.784745585829        2.983099447751
 C          0.019861457811       -0.001194665242        1.717784085078
 C         -0.072426344239       -0.481200981885        3.083085495345
 C          0.067045795426       -0.841593315037        0.593346366308
 C          0.036524904202       -0.502785065819       -0.764361795254
 C         -0.065493222911        0.826254409994       -1.292619829357
 C         -0.027009875527        1.034639513163       -2.635390610327
 C         -0.061691549513       -0.026614133834       -3.614933660685
 C          0.005349163438       -1.382205793333       -3.044578460610
 C          0.033851940366       -1.604218982815       -1.692727226806
 O         -0.084830219847       -1.634078868358        3.550384214457
 O          0.012145144012        0.172315030561       -4.886843781628
