21
Frame 4
 N         -0.129612016989        0.719702096235        3.865433922321
 N          0.048573223273        1.461540354038        1.786968739143
 H         -0.096487547906        0.720311931555        4.884774547235
 H          0.226914989973        2.771372055706        3.461675422098
 H          0.162059884760       -1.877441561819        0.829331682480
 H         -0.058966233856        1.680755827085       -0.660877398152
 H         -0.014242066071        2.033652477342       -3.113354922848
 H          0.134835531820       -2.234265129180       -3.780700441360
 H          0.039118383573       -2.614502214150       -1.277274138310
 C          0.091396199898        1.798445499035        3.010401387693
 C          0.048625323671        0.031944812109        1.781761392211
 C         -0.087373292396       -0.473308679667        3.161477907068
 C          0.007645287766       -0.782261869413        0.624604934559
 C         -0.096407093173       -0.495869805247       -0.758336931054
 C         -0.067781153517        0.821702767949       -1.342436423355
 C         -0.063268105211        1.040957398724       -2.720336253387
 C          0.001703624848       -0.074622727070       -3.704459742066
 C          0.094112798883       -1.399601008025       -3.054754163238
 C          0.031149117127       -1.600640240771       -1.690985564637
 O         -0.149140442887       -1.627665714198        3.624537369121
 O         -0.122856413587        0.099793729762       -4.927451325522
