21
Frame 4
 N         -0.045288584397        0.727906549189        3.892255822786
 N          0.128509954321        1.433526803205        1.787420696831
 H         -0.162191879205        0.787555225700        4.905147277471
 H          0.207736696329        2.815151554487        3.448422181476
 H         -0.080839520544       -1.822487137214        0.864688160968
 H          0.024206886885        1.584464786660       -0.572618879142
 H         -0.175798152847        2.033116158766       -3.137460667114
 H          0.152370043570       -2.256755880901       -3.817545389076
 H          0.201878695448       -2.641882228393       -1.369004367543
 C          0.156225120169        1.793857731559        3.030943268581
 C         -0.040053339034        0.032838521377        1.752582892455
 C         -0.165900533027       -0.496553776951        3.134303379135
 C          0.040943403141       -0.779904569332        0.632378391956
 C          0.112781443190       -0.504017968876       -0.789434318187
 C          0.057103990063        0.835059524075       -1.331044592988
 C         -0.020477124784        1.033705843399       -2.690863027803
 C         -0.103082489857       -0.049844006715       -3.671767019439
 C          0.068268332998       -1.416293518788       -3.104763524428
 C          0.175916865333       -1.582008280366       -1.728722202367
 O         -0.256213033111       -1.629384250292        3.656702785220
 O         -0.276096774639        0.101948919412       -4.891620868793
