21
Frame 4
 N         -0.120657382403        0.679183368387        3.861171265375
 N         -0.004366063294        1.382905719409        1.730143910445
 H         -0.151913264531        0.733115567002        4.870129730849
 H         -0.104555456341        2.805098002473        3.348561414145
 H          0.022611598997       -1.859904243316        0.804221109225
 H          0.289254896531        1.787350626330       -0.696720564929
 H          0.115922740039        2.014108897365       -3.103015926499
 H         -0.109871898736       -2.294398953650       -3.684731068976
 H          0.133010913314       -2.647402958156       -1.232094780803
 C         -0.036445915242        1.763284042699        2.999093438929
 C          0.089422400644       -0.014528309732        1.728049894815
 C         -0.059773121538       -0.529224616540        3.100269066582
 C          0.129582053598       -0.776003965214        0.602170327742
 C          0.123824596297       -0.438833578862       -0.765853418395
 C          0.172863634080        0.857402455130       -1.309213324328
 C         -0.067215270736        1.043380491639       -2.640288461633
 C         -0.154193617987       -0.058582597670       -3.649669244902
 C          0.006572316051       -1.374686511408       -3.044376266732
 C          0.062546551440       -1.574841484823       -1.669878664366
 O         -0.038992141642       -1.629623782820        3.619657258191
 O         -0.297627568541        0.132201831759       -4.867625694734
