21
Frame 4
 N         -0.057491995498        0.641534777645        3.872896986056
 N         -0.120030196947        1.506513738268        1.809973622794
 H          0.288627492917        0.473442468452        4.806162321460
 H         -0.208588356623        2.820243146776        3.454099685077
 H         -0.023783417888       -1.771999680384        1.004047945526
 H         -0.027281791368        1.767242208859       -0.732216760129
 H          0.120015007704        2.020087546822       -3.154379237594
 H         -0.065965817679       -2.323560565675       -3.661641027115
 H         -0.136884520265       -2.570187623262       -1.215952438321
 C         -0.099600144124        1.772972620528        3.090759061900
 C         -0.050033591116        0.104343493390        1.718295216204
 C          0.063095891881       -0.477831326106        3.029258329919
 C         -0.089558086367       -0.730471964351        0.620672805760
 C         -0.032230709001       -0.426111981412       -0.755319229055
 C          0.012727200586        0.868912349287       -1.357028870136
 C          0.137252008846        1.015765247060       -2.725391115762
 C          0.029638773371       -0.112108580452       -3.648161843906
 C          0.071971429323       -1.446985985025       -3.032016293306
 C         -0.070339441970       -1.567241712220       -1.657521817687
 O          0.173578938923       -1.629760267809        3.395361571229
 O          0.084881325296        0.065202089611       -4.861898912914
