21
Frame 4
 N         -0.059175171943        0.687979527391        3.898127494278
 N          0.113319905702        1.540081177409        1.835864109786
 H          0.272262691448        0.509314420128        4.834165115419
 H          0.184625210235        2.861440186934        3.442130766817
 H         -0.287312475592       -1.760960524647        0.947853382639
 H         -0.236253156558        1.646082786452       -0.716907657005
 H         -0.024781817021        1.974508389141       -3.009834063034
 H          0.345350356446       -2.113339164537       -3.772120106796
 H          0.293638696445       -2.646267866071       -1.358230802324
 C          0.195663816846        1.807396134705        3.110736847537
 C         -0.062952257697        0.134722800890        1.700683163608
 C         -0.128014012205       -0.412742417979        3.072570227838
 C         -0.134594825744       -0.729049208942        0.629510274374
 C         -0.116392358709       -0.533464336958       -0.775994942254
 C         -0.104067735715        0.749746084847       -1.314225976188
 C         -0.106633845408        0.961045096067       -2.676069127643
 C         -0.043381323704       -0.116835876219       -3.676056136410
 C          0.078905811558       -1.383303174852       -3.042411274303
 C          0.102469264679       -1.625899791007       -1.665917766186
 O         -0.255866064943       -1.582056008456        3.464503427681
 O         -0.026810708119        0.031601765705       -4.928376957834
