21
Frame 4
 N          0.123044554785        0.722397286915        3.841100053944
 N          0.023384832226        1.447763382944        1.724381435700
 H          0.081457949709        0.710365817552        4.839168051294
 H          0.349665675425        2.809496053878        3.365445329946
 H         -0.018900113960       -1.861431645883        0.889555819375
 H         -0.232211816610        1.617535931211       -0.577293589442
 H         -0.189293303350        2.098862033900       -3.022848588818
 H          0.354670137846       -2.209628320176       -3.777491068545
 H         -0.038315148839       -2.654084974834       -1.305792954052
 C          0.039958291115        1.811141682655        2.963826427106
 C         -0.060086505382        0.034880700092        1.696094955404
 C         -0.065211689684       -0.440499313786        3.058501392151
 C         -0.052744314684       -0.819131555316        0.593975888763
 C         -0.102680137726       -0.553780176743       -0.752795259147
 C         -0.123888805360        0.782542601743       -1.260977864864
 C         -0.136481981652        1.011565594532       -2.616028463846
 C          0.020562742050       -0.090360725634       -3.622452904637
 C          0.159878592340       -1.403511150572       -3.019425310373
 C          0.015550524217       -1.632086760176       -1.683564726517
 O         -0.279897270217       -1.560866205827        3.515224950684
 O          0.131537787751        0.178829743524       -4.848603574125
