21
Frame 4
 N         -0.139473812226        0.699367425055        3.838239674844
 N         -0.080709877769        1.414269828762        1.723223608913
 H         -0.182586752188        0.779876934596        4.824420704848
 H         -0.199363415337        2.776049174112        3.388840327295
 H          0.323289772674       -1.862863669304        0.824433331132
 H          0.514974828826        1.669472051215       -0.696997487022
 H          0.078817112930        2.063023382161       -2.994547293701
 H         -0.403984357934       -2.301301354633       -3.652830180092
 H          0.238183718570       -2.600911251921       -1.357165836907
 C         -0.132281581448        1.794000196900        2.972853465529
 C          0.012565854467        0.009349483268        1.732949612315
 C         -0.095858124317       -0.500357868923        3.103197661776
 C          0.218348138238       -0.775763523175        0.603793233188
 C          0.263206943297       -0.482716704804       -0.776990188116
 C          0.306540622719        0.855450769836       -1.321780621439
 C          0.098049099780        1.011208022796       -2.660664495803
 C         -0.274787126414       -0.044500858790       -3.600166148857
 C         -0.155244245748       -1.431403223715       -3.030389412723
 C          0.171698734094       -1.571874033677       -1.697448155705
 O         -0.178507919745       -1.649222781970        3.606916725765
 O         -0.382877612472        0.148848002209       -4.829888525239
