21
Frame 4
 N         -0.306136953493        0.645839322643        3.824202360984
 N          0.050181156622        1.428270190628        1.773518759282
 H         -0.215626977119        0.735233696015        4.831835663485
 H         -0.341489395969        2.796432946551        3.340148594434
 H          0.174682621877       -1.838028995420        0.869832602084
 H          0.378738481908        1.693195553356       -0.616415237002
 H          0.083742845135        2.012101083704       -3.106924421542
 H         -0.308990232958       -2.190662246177       -3.766773725313
 H         -0.143073713995       -2.598462167625       -1.221643893303
 C         -0.208431758441        1.762172567824        2.994108266734
 C          0.219757427826        0.034031238559        1.761323145391
 C          0.072395590496       -0.506776447569        3.145147315258
 C          0.222763809997       -0.772500359271        0.620022820680
 C          0.140160249666       -0.478303869520       -0.761972431480
 C          0.268654601375        0.831513728023       -1.326746134876
 C          0.111895321192        1.016984879972       -2.682481351777
 C         -0.165098228978       -0.063052245466       -3.658540543150
 C         -0.201697379099       -1.398125663151       -3.020280760272
 C         -0.067488343174       -1.611486272554       -1.682895118494
 O          0.294852766922       -1.623126819571        3.598538537119
 O         -0.059791889788        0.124749879047       -4.914004448243
