21
Frame 4
 N         -0.035007071578        0.734856777700        3.807451247583
 N          0.090307278440        1.456467392612        1.708906082462
 H         -0.068308212537        0.703454644256        4.830246970921
 H         -0.027907159030        2.816727159845        3.336682874612
 H          0.073879852327       -1.851729052424        0.904351938015
 H         -0.077697272722        1.569575386750       -0.531016702135
 H         -0.042662254777        2.032711852490       -3.020934061994
 H          0.051389107751       -2.157137135932       -3.768304518475
 H         -0.076448971809       -2.644672127743       -1.378683883621
 C          0.024986716525        1.797195207881        2.969060615955
 C          0.158083779028        0.061243617513        1.692637396008
 C          0.017981831439       -0.431017852761        3.063071560011
 C          0.047701168985       -0.796393883490        0.618294155648
 C         -0.090277331787       -0.590255127442       -0.754473722276
 C         -0.028245390062        0.784113778552       -1.264092107884
 C         -0.067022517895        1.017674827049       -2.623892566709
 C          0.118558117146       -0.029997016397       -3.571172983532
 C         -0.023610055136       -1.372490209809       -3.045206878742
 C         -0.080147818421       -1.642049782835       -1.717322190284
 O         -0.043446503565       -1.569116600338        3.521748059476
 O          0.077892707678        0.110838144525       -4.777351285040
