21
Frame 4
 N          0.088288324702        0.707937024802        3.809263330564
 N         -0.117036671072        1.445545533770        1.684280008014
 H          0.128615103841        0.684410568306        4.787310324773
 H          0.202351696595        2.771869543322        3.232434682303
 H         -0.134539448938       -1.852047003782        0.895930373798
 H         -0.416219960446        1.646600361261       -0.620469465770
 H         -0.077062506216        2.060367481463       -2.984844420388
 H          0.242729118278       -2.220146678669       -3.627729718490
 H         -0.361139551394       -2.608932174522       -1.326572952383
 C         -0.024088995741        1.767516556045        2.933416149045
 C         -0.038678406175        0.037083730739        1.682285400494
 C          0.185813404629       -0.465828793996        3.026054528395
 C         -0.193433948497       -0.818177409029        0.576992092959
 C         -0.317823194793       -0.536497689218       -0.753483438027
 C         -0.288577260225        0.802544880721       -1.289225860676
 C          0.033281550025        1.075084745267       -2.595370752548
 C          0.249074881123       -0.055713125305       -3.578715649712
 C          0.092333525693       -1.377096679572       -2.972808850323
 C         -0.144098912822       -1.627244781744       -1.651821236913
 O          0.330755781327       -1.606550705046        3.548515500959
 O          0.559455470106        0.169274615186       -4.775440046073
