21
Frame 4
 N          0.051806250006        0.720588571392        3.881240288182
 N         -0.243407165092        1.497550321444        1.786514889996
 H          0.163532351182        0.718251178164        4.894179876957
 H         -0.121426835179        2.816222580247        3.445510665604
 H         -0.042953087498       -1.811569683109        0.880682332713
 H         -0.105937903186        1.641390736036       -0.646424317959
 H          0.094865530951        2.016028380273       -3.046568570984
 H         -0.093587758508       -2.198751042155       -3.869955806953
 H         -0.257480685238       -2.600639806507       -1.268554385514
 C         -0.185383782328        1.808542639059        3.061352937218
 C         -0.038326551452        0.075860530887        1.752698792744
 C          0.196493168042       -0.477604192503        3.081883169536
 C         -0.095943531780       -0.767163982354        0.615146944120
 C         -0.063548626297       -0.555345290203       -0.762585134738
 C         -0.067607245152        0.770656977998       -1.311516272645
 C          0.022169580958        1.013205135001       -2.670145148428
 C          0.186754689008       -0.085459136607       -3.628170843522
 C         -0.141233964711       -1.411857386614       -3.123677270961
 C         -0.169432224117       -1.629362290698       -1.763732756231
 O          0.420400731621       -1.611177275917        3.524536595215
 O          0.490247058770        0.070633036165       -4.832415984350
