21
Frame 4
 N          0.051981962431        0.656979477526        3.889256863805
 N         -0.044182516409        1.456721036688        1.822597595522
 H          0.124365246777        0.655407438225        4.918452817141
 H         -0.034175645054        2.721425539795        3.501221756204
 H         -0.100704391972       -1.754986204813        0.790945013825
 H         -0.212716580944        1.741567747174       -0.741411221186
 H          0.101067683320        2.041486676145       -3.231296229113
 H         -0.046817680769       -2.347119944562       -3.618549894397
 H          0.084698409034       -2.473923628961       -1.158627786628
 C         -0.022285188041        1.746616520722        3.092953503621
 C         -0.046616673056        0.062266138720        1.770459876515
 C          0.081198365940       -0.500286007692        3.095167165589
 C          0.016738673958       -0.695288650941        0.617089624106
 C         -0.085374265565       -0.423055935814       -0.769962558135
 C         -0.088233810490        0.881182036654       -1.420699316122
 C          0.021450429372        1.035384668662       -2.755008936148
 C          0.070791461528       -0.123025113144       -3.653781208470
 C         -0.056194137482       -1.418762894582       -3.009220176388
 C         -0.042475488153       -1.512307729223       -1.659471087397
 O          0.021547877065       -1.736572798225        3.412174535208
 O          0.205936268509       -0.013708372354       -4.892290337551
