21
Frame 4
 N         -0.081996463937        0.631530041983        3.924241175922
 N         -0.139607318624        1.415061101059        1.791788219239
 H          0.381278231394        0.618107342876        4.803120070819
 H         -0.064916372409        2.763069516002        3.399442553634
 H         -0.107655040106       -1.815214646649        0.766341631663
 H         -0.023313115126        1.760806042944       -0.693451931335
 H          0.048509441108        2.046370680184       -3.146605169235
 H         -0.041103177266       -2.256632028760       -3.650284709612
 H          0.023248115232       -2.456215943972       -1.149933584801
 C         -0.093726503132        1.734415100227        3.054867617145
 C         -0.056895241410        0.030347847599        1.753783481728
 C         -0.044545904507       -0.513416512452        3.135697817459
 C         -0.032755191194       -0.718179326553        0.568428750925
 C          0.041433268509       -0.443642275069       -0.804486469512
 C          0.012257951590        0.897130674217       -1.395283597729
 C         -0.004446812404        1.017271007082       -2.758126858783
 C          0.042686000516       -0.131860429791       -3.663958974285
 C          0.054656184685       -1.432090877000       -2.993141208923
 C         -0.018224445769       -1.510602885716       -1.656210415108
 O          0.012358403304       -1.641778630731        3.631908155915
 O          0.092757989547        0.005524202521       -4.918136555127
