21
Frame 4
 N         -0.063514329989        0.640450531967        3.899627829405
 N          0.106834615750        1.407496832372        1.822888348766
 H         -0.380133006827        0.697378019293        4.823345584117
 H          0.249156448834        2.744235614146        3.468882977085
 H         -0.014548871513       -1.808783873967        0.771857363331
 H          0.225282885607        1.811667101944       -0.757407534084
 H         -0.067931193313        1.983650167479       -3.230125460029
 H          0.021785420435       -2.271215948318       -3.693346485270
 H          0.233887391024       -2.513237296662       -1.208928965221
 C         -0.026966355653        1.756959480929        3.082366174105
 C          0.028117156851        0.057605997355        1.780215883196
 C         -0.113385203960       -0.521803932692        3.103304191262
 C          0.032885105723       -0.726620632017        0.642639053068
 C          0.097325197550       -0.402689398072       -0.733981996339
 C          0.150325583469        0.914413258512       -1.373816192205
 C         -0.074413173200        1.016040974760       -2.709962560519
 C         -0.150903408771       -0.122249537877       -3.644185966277
 C          0.073968441205       -1.421660490906       -3.037758273805
 C          0.133388412277       -1.561723804009       -1.684536768835
 O         -0.095970582386       -1.691063861210        3.547348339613
 O         -0.365190533111        0.011150796975       -4.868425541367
