21
Frame 4
 N         -0.208435108296        0.671319769142        3.854609647717
 N          0.211871975453        1.420812962493        1.759383796459
 H         -0.536022258921        0.638590885110        4.779263558368
 H         -0.238019734999        2.754582359660        3.408374145453
 H          0.317581542011       -1.889624451485        0.888428822908
 H          0.231915362896        1.679281622708       -0.694110388783
 H          0.028774885820        2.048425193809       -3.171130805976
 H         -0.395120404994       -2.173441170446       -3.639242671722
 H         -0.151885382644       -2.578879485148       -1.262212067290
 C         -0.090742018086        1.781645727499        2.979049109723
 C          0.259802896795        0.019047306028        1.764931972849
 C          0.066705673691       -0.488151955883        3.083641454606
 C          0.294256749667       -0.786290138801        0.646479043566
 C          0.109672966143       -0.447946819132       -0.735942471391
 C          0.179644448613        0.857234740021       -1.392040057977
 C          0.078883281518        1.047239495875       -2.741995718301
 C         -0.062838924765       -0.073926251278       -3.630410043624
 C         -0.091298342358       -1.354075771889       -2.991780880596
 C         -0.019359348942       -1.535801577382       -1.634077368285
 O          0.159038625250       -1.624452177251        3.615934759075
 O         -0.144426883851        0.034409736348       -4.887153836780
