21
Frame 4
 N          0.149662979128        0.685146334615        3.829240973678
 N         -0.053086501513        1.452817891887        1.718144020437
 H         -0.067904235668        0.643775375798        4.831629969864
 H          0.302006754817        2.819247558448        3.269704475925
 H         -0.080160518764       -1.809611839045        0.939639815013
 H         -0.042929474222        1.568278205905       -0.581001840784
 H         -0.213862294010        1.992428064926       -3.040326176816
 H          0.149541005068       -2.221018988316       -3.783609593994
 H          0.100206994000       -2.570551229706       -1.307228479944
 C          0.144013301561        1.771409263410        2.941353826627
 C         -0.191116657056        0.024215304539        1.708576876310
 C         -0.072421487475       -0.464278666487        3.067489608101
 C         -0.106274299294       -0.799592460036        0.631053821529
 C         -0.004504846942       -0.536427835808       -0.734465819995
 C         -0.030386246618        0.783726671050       -1.310363565487
 C         -0.146105512777        1.004492323718       -2.655361021244
 C          0.011941755551       -0.010883955077       -3.596797778795
 C          0.204043332888       -1.323810682922       -3.029969609190
 C          0.124282170638       -1.569314944280       -1.690734824244
 O         -0.195421137229       -1.577217929217        3.652774457461
 O          0.018474917914        0.137171536598       -4.859749134451
