21
Frame 4
 N          0.012715134479        0.669293353375        3.904545238031
 N         -0.166216652633        1.519567306993        1.856672288360
 H         -0.084986803326        0.633409528108        4.901196961809
 H         -0.383430170303        2.759465034046        3.583871117975
 H          0.052748097583       -1.758170028239        0.879090082893
 H          0.574879179164        1.663671575251       -0.726639362757
 H          0.127939175724        2.016820317761       -3.188136127694
 H         -0.097983668617       -2.303227664692       -3.690320989566
 H         -0.024320476638       -2.560258623201       -1.231002234544
 C         -0.164458755534        1.799466001720        3.136165721062
 C         -0.086921991851        0.109411882815        1.712107280902
 C          0.036116931189       -0.494437526619        3.061553776370
 C          0.061923040315       -0.677739140053        0.563975860175
 C          0.084791185101       -0.444000630627       -0.779787421489
 C          0.306925022899        0.825263375902       -1.385927529054
 C          0.151791392650        1.024692128769       -2.732862155498
 C         -0.090746935277       -0.120549235568       -3.672049172183
 C         -0.117264421760       -1.465380566212       -3.033612830067
 C         -0.068550354571       -1.564926655640       -1.672980147251
 O          0.223431851543       -1.669656721117        3.399644160845
 O         -0.348380780138        0.037286287229       -4.885504518316
