21
Frame 4
 N         -0.134689784815        0.669136961007        3.920650751256
 N          0.141434723591        1.424393790217        1.858860093693
 H         -0.393007984136        0.659361520053        4.879300495727
 H         -0.165197096246        2.794085514944        3.482178792219
 H          0.158063449146       -1.753495144922        0.843232404185
 H          0.157766239559        1.734499952883       -0.745856965652
 H          0.004403611598        2.041519782345       -3.188104528618
 H         -0.108949525234       -2.246916707183       -3.711792209341
 H         -0.081501361978       -2.580978895137       -1.212308934548
 C          0.002056647898        1.768838628376        3.093685806549
 C          0.211155389360        0.048702785416        1.749124330294
 C          0.066059473861       -0.517606618363        3.135039397290
 C          0.161480256766       -0.715040111557        0.628425142499
 C          0.137592816316       -0.474206488769       -0.802138233648
 C          0.125085316168        0.851127695753       -1.409240779766
 C         -0.021453854877        1.039803933908       -2.741216873567
 C         -0.062509864607       -0.116488139599       -3.697428341649
 C         -0.134887275794       -1.413208402371       -3.043260629596
 C         -0.145956317247       -1.580630149358       -1.685400963556
 O          0.114371946195       -1.666693149942        3.575522955132
 O         -0.031316805524        0.033793242299       -4.929271708903
