21
Frame 4
 N          0.102562381176        0.667091308986        3.883890324807
 N          0.059317237537        1.501765259042        1.782636673204
 H          0.107134265569        0.718909983623        4.880477057199
 H         -0.241058222040        2.784077201001        3.428036980924
 H         -0.163438957617       -1.762641654095        0.957135825707
 H          0.043103163952        1.595845498971       -0.656147855354
 H         -0.005570094692        2.031420744075       -3.002296818833
 H          0.048270040485       -2.147989721478       -3.861152294501
 H          0.010323516580       -2.671559759522       -1.201682760353
 C          0.040444905659        1.810997682397        3.053984114025
 C          0.082347003068        0.109138212387        1.695480558389
 C         -0.012825067175       -0.461383799155        3.075979735328
 C          0.005842494994       -0.751573103761        0.609420274032
 C          0.020616099544       -0.569105429870       -0.772758949480
 C          0.001645584387        0.763734233939       -1.348411339891
 C         -0.026999085927        0.985816607958       -2.679895654799
 C         -0.029519947373       -0.068076004770       -3.664576596538
 C          0.060221373300       -1.383684260787       -3.061767993017
 C          0.007863632874       -1.657492770572       -1.688451410625
 O         -0.104674535831       -1.616959956802        3.494125765030
 O         -0.005605788473        0.121669728434       -4.924025635256
