21
Frame 4
 N         -0.029253056479        0.692322781305        3.892941318668
 N          0.028111654951        1.445800321445        1.768626374152
 H          0.116353253169        0.760522031011        4.898295501317
 H         -0.008029576532        2.839783435618        3.399527857257
 H          0.122799938394       -1.860080957757        0.850658856879
 H         -0.180373221855        1.711140465591       -0.630264413823
 H         -0.069603606623        2.079253693674       -3.158697625987
 H         -0.006104064815       -2.251469024915       -3.728805898005
 H         -0.210069707105       -2.644866766254       -1.404127537961
 C         -0.036442914890        1.781533917724        3.029711674153
 C          0.046581525093        0.036357799983        1.740593466223
 C          0.043545290099       -0.515125154772        3.149594916322
 C         -0.008700312341       -0.767969765006        0.606349891315
 C         -0.074092986234       -0.530531880806       -0.794646781661
 C         -0.067910590983        0.835983549685       -1.319816813825
 C          0.003715378737        1.060683703103       -2.657611038722
 C          0.111354877193       -0.059340678884       -3.611272982114
 C          0.082563371336       -1.415668762417       -3.077778757948
 C         -0.036194520910       -1.605152709945       -1.723349546260
 O         -0.035251525115       -1.647714525295        3.627510643279
 O          0.207000794911        0.054538526915       -4.857439103257
