21
Frame 4
 N          0.084040705958        0.662581026420        3.846581832179
 N         -0.081373331552        1.474783738856        1.759972767429
 H         -0.065680343648        0.705772278560        4.836716845202
 H          0.037907598746        2.820272031243        3.451565038583
 H          0.020515729960       -1.811990995697        0.805294385195
 H          0.069755730275        1.620234253734       -0.572101210691
 H         -0.084444555492        2.035390969590       -3.141745645333
 H         -0.029555510323       -2.236818405682       -3.735575117977
 H          0.008779629672       -2.636359150480       -1.235072381372
 C          0.035905025297        1.799202021956        3.005622772200
 C         -0.078015365956        0.059080662791        1.720011430811
 C         -0.089116758089       -0.492313620811        3.055757207490
 C          0.104158231663       -0.742506141035        0.597296941095
 C          0.133744168665       -0.500722942358       -0.783355992806
 C          0.015866573644        0.802729682193       -1.336899884262
 C         -0.024878755466        1.020419067398       -2.694035999761
 C          0.014382799346       -0.071862077025       -3.630588387022
 C          0.067894449723       -1.406994852483       -2.997482433168
 C          0.036780078486       -1.622234822960       -1.624372254849
 O         -0.102246034144       -1.638306554905        3.554131658751
 O         -0.074420066765        0.159643830695       -4.881721571695
