21
Frame 4
 N          0.002668548928        0.744765288256        3.867153551390
 N          0.087269505739        1.408323580716        1.710828633952
 H         -0.237606934826        0.767128311491        4.830853324161
 H         -0.341841103727        2.743065408330        3.377504354134
 H          0.070037721795       -1.861149109741        0.911220144073
 H          0.265863488537        1.641711962506       -0.674003759963
 H          0.192508368987        2.061211181675       -3.041695445640
 H         -0.119469503519       -2.276735038628       -3.660504422593
 H          0.007861310653       -2.621257896256       -1.316405274867
 C         -0.045786446841        1.751949337249        2.970620758472
 C          0.165294918615        0.014798900453        1.750704502564
 C          0.054504833523       -0.477737390980        3.112315841480
 C          0.100910223184       -0.783634120759        0.637016327684
 C          0.139325020635       -0.541519150649       -0.732899325744
 C          0.151404246797        0.811187470881       -1.334769807555
 C          0.064966533328        1.031492510139       -2.688775637722
 C         -0.138443027175       -0.045634144384       -3.689494009605
 C         -0.007351058211       -1.366168040735       -3.063303153462
 C          0.036191547636       -1.569170211589       -1.697865991561
 O         -0.050811483901       -1.621309107425        3.591259520195
 O         -0.397496710157        0.188680259451       -4.859760129394
