21
Frame 4
 N          0.035271737080        0.717958683996        3.856068718422
 N         -0.007141688772        1.442912595712        1.738188795184
 H          0.079848989940        0.686002712482        4.844158923993
 H          0.030823483933        2.762930382337        3.323813643784
 H         -0.022855872919       -1.793086506468        0.968030748992
 H         -0.113463233582        1.604369223881       -0.601084813243
 H          0.112753588811        1.997705447886       -3.045378225456
 H          0.081955442226       -2.200921064370       -3.851463423671
 H          0.138948895367       -2.585913017116       -1.254460527536
 C          0.048899099728        1.775693126296        2.972146946673
 C         -0.029678913758        0.045954095105        1.754024016690
 C         -0.046479785734       -0.462629842301        3.085552880648
 C         -0.057810928914       -0.749696665138        0.626938694209
 C         -0.138218972915       -0.487540441305       -0.760942744882
 C         -0.143964421912        0.800402966011       -1.311993138750
 C         -0.047712971340        1.024134865467       -2.667107197044
 C         -0.011531603697       -0.068691839161       -3.618120785856
 C         -0.086417775380       -1.407019439801       -3.066268182833
 C         -0.030885651826       -1.646151675016       -1.720707747719
 O          0.021994618443       -1.607269017850        3.558030457852
 O          0.185665965221        0.150855409349       -4.829427039457
