21
Frame 4
 N         -0.224253054545        0.750259881412        3.894107008011
 N          0.008367586562        1.499025896297        1.817253459916
 H         -0.062974132362        0.753350599959        4.871041220576
 H          0.051065658141        2.856305097073        3.438452786053
 H          0.335441557028       -1.832344262571        0.949335601541
 H          0.146459665440        1.607852505576       -0.643875729976
 H          0.178352161629        2.001937054775       -3.111955566241
 H         -0.156473698773       -2.209917485186       -3.803476307098
 H          0.141428296093       -2.723081022654       -1.381173084446
 C         -0.063030291780        1.859632593513        3.073895134576
 C         -0.042968081891        0.065311876589        1.761180431920
 C         -0.081250170189       -0.474863890311        3.107263077000
 C          0.125609066204       -0.806396187977        0.640802060084
 C          0.079031727015       -0.596417729395       -0.753959075738
 C          0.009015790664        0.773059662371       -1.310162343267
 C         -0.026931855205        1.017199781875       -2.659149593188
 C         -0.095714737106       -0.035624185206       -3.676870381974
 C         -0.066015126223       -1.404730630840       -3.090280218415
 C          0.022481601677       -1.669154869735       -1.764452771393
 O         -0.094293797378       -1.646285377052        3.533478475914
 O         -0.183348165000        0.214880691486       -4.891454183856
