21
Frame 4
 N         -0.194320445957        0.783170658768        3.779726428199
 N          0.146669106151        1.377671782444        1.660151205427
 H         -0.314452426110        0.747574029457        4.774252942128
 H          0.170745783774        2.792973702142        3.210772270607
 H         -0.032417092332       -1.907091617659        0.971636277249
 H          0.184772028361        1.573725978237       -0.520571335323
 H         -0.202350721089        2.095219420826       -2.870935485731
 H          0.002595178058       -2.205259716885       -3.708224530347
 H          0.140413332676       -2.636513720713       -1.329264177240
 C          0.059298931206        1.780995278717        2.906048005565
 C          0.047697978375       -0.001622361625        1.706756028021
 C         -0.041895144524       -0.452897091969        3.095985907418
 C          0.072339532681       -0.878457640460        0.591380442772
 C          0.171419618834       -0.542483758659       -0.783947018137
 C          0.107381258746        0.790748869761       -1.279713404452
 C          0.026754284609        1.084705722759       -2.611993077973
 C         -0.097219307206       -0.030783247169       -3.628604484770
 C          0.028698446521       -1.377998877754       -3.043591905220
 C          0.188247899365       -1.611993660329       -1.714054461226
 O         -0.140414315765       -1.567111236604        3.603929179478
 O         -0.323963926372        0.185427486714       -4.809738806446
