21
Frame 4
 N          0.046312170014        0.711500508595        3.874679863355
 N         -0.358217648722        1.434607402219        1.762886384010
 H          0.459347166781        0.789455516608        4.817461727706
 H         -0.272807339295        2.813671551760        3.348277677921
 H         -0.122256488264       -1.830284785780        0.995034742582
 H         -0.003575233578        1.612834764913       -0.627028077905
 H          0.242621478580        2.054187613678       -3.037499941866
 H         -0.008564714209       -2.215681380518       -3.788738122966
 H         -0.222768377833       -2.660131261841       -1.376068268509
 C         -0.241401076551        1.784333102629        3.007603172063
 C         -0.150413749643        0.018767297798        1.764582055956
 C          0.126980700467       -0.468677824052        3.116712376575
 C         -0.176048950236       -0.824400849525        0.624827417222
 C         -0.116055522414       -0.569271146839       -0.726561336715
 C          0.067516057911        0.744709962140       -1.304250688650
 C          0.281853421207        1.030012453938       -2.657993992673
 C          0.076104000932       -0.014451451268       -3.682103131730
 C         -0.001392342942       -1.405151079969       -3.059095228808
 C         -0.080971944366       -1.643011235105       -1.713171287502
 O          0.376972732077       -1.579180056353        3.580604048518
 O          0.076765660084        0.216160896971       -4.920159388583
