21
Frame 4
 N          0.117935927495        0.762783387790        3.873331682851
 N         -0.114799255143        1.410781688931        1.724260534260
 H          0.078691578291        0.813044644688        4.885955419600
 H         -0.024850676725        2.845183889370        3.306288078396
 H         -0.080763022343       -1.929846352255        0.965076847408
 H         -0.111440898242        1.553616379125       -0.561818459417
 H          0.082335533901        2.084814276212       -2.958946417270
 H          0.031784588391       -2.255495516973       -3.796255205363
 H         -0.095161448046       -2.658248699608       -1.398769237017
 C         -0.034418498545        1.816763172165        2.914568868748
 C         -0.133210138616        0.017090881308        1.735051004597
 C          0.076342256256       -0.444660111837        3.150881593246
 C         -0.095943195636       -0.866805884711        0.617041964320
 C         -0.112752599033       -0.577867092706       -0.770576491092
 C         -0.086687439619        0.768792676307       -1.293354306274
 C          0.003790154240        1.032537005205       -2.635968950949
 C          0.105735092977       -0.000970251850       -3.666390349589
 C         -0.016467166976       -1.380553747523       -3.099557968767
 C         -0.054971675121       -1.626873916772       -1.731803025883
 O          0.224267388372       -1.594883305821        3.598082912772
 O          0.240583494123        0.230796878956       -4.857098494577
