21
Frame 4
 N         -0.192422790084        0.716468676360        3.906946134919
 N          0.125665928436        1.408346484941        1.816138130987
 H         -0.225488546385        0.667120085737        4.902331257759
 H         -0.100066246687        2.833262332472        3.359204184103
 H         -0.021968842304       -1.802731572771        0.846200365103
 H          0.343968241756        1.622958264866       -0.681044744031
 H          0.036541795873        2.070686846027       -3.112809896765
 H          0.098879200705       -2.215162926496       -3.800115030929
 H         -0.003650561606       -2.663787872547       -1.263676582250
 C          0.026667824673        1.787798054393        3.068321969131
 C          0.108600819550        0.029367371334        1.782850847459
 C         -0.071482203712       -0.443572768149        3.095888352151
 C          0.073157579840       -0.754128887299        0.613995789355
 C          0.125860931659       -0.513153484343       -0.770578259582
 C          0.154035494326        0.791626900651       -1.367658202235
 C          0.022893815033        1.060107350020       -2.713972599895
 C         -0.223280195240       -0.074080903366       -3.626791636812
 C          0.056734291111       -1.428691187449       -3.087482427080
 C          0.126727096236       -1.650783586418       -1.725748430903
 O         -0.005561472274       -1.580930407798        3.588088598602
 O         -0.455812160906        0.139281229833       -4.830087819087
