21
Frame 4
 N         -0.006615473964        0.684250921291        3.930808503581
 N         -0.218305896277        1.463993371469        1.769020373700
 H          0.175573084523        0.613376420514        4.935697969102
 H         -0.047879992023        2.791092167998        3.398621571472
 H          0.056833217820       -1.841273372167        0.858302727414
 H          0.225719331645        1.735255748892       -0.756829774896
 H         -0.030010340857        2.030005588921       -3.145627920571
 H         -0.009656531528       -2.281524133632       -3.671405027809
 H         -0.045759086018       -2.572070090335       -1.229958161561
 C         -0.116210248092        1.773938483831        3.089722513633
 C         -0.133378431394        0.056224081219        1.747932726802
 C         -0.067042988464       -0.498271823063        3.105165203239
 C         -0.043475193363       -0.777265898122        0.623024659279
 C          0.066638064327       -0.456910623497       -0.763782243949
 C          0.148038673492        0.828585764037       -1.400180978045
 C          0.067916588884        1.032246294551       -2.734347365016
 C         -0.023285448113       -0.083138269684       -3.648454202028
 C          0.016477923038       -1.400738039357       -3.063883411805
 C          0.006872332996       -1.567250117508       -1.688380927558
 O          0.050946424177       -1.627512146264        3.581899238529
 O         -0.073396010810        0.096985670906       -4.937345473513
