21
Frame 4
 N         -0.008694249058        0.626063466311        3.889866055200
 N         -0.254001027364        1.523380245586        1.837444187402
 H          0.216549986115        0.638802025563        4.857753899091
 H         -0.091797858466        2.764582603701        3.566827443242
 H          0.017919244276       -1.782810157564        0.824692917417
 H          0.067363459758        1.725962577647       -0.743655350725
 H          0.137402443314        1.982068065012       -3.265403567791
 H          0.086892355854       -2.234862902369       -3.734763828947
 H         -0.061066786205       -2.574980145130       -1.118520652949
 C         -0.094785573031        1.776204168487        3.102411846062
 C         -0.116829764139        0.124638797329        1.685426524710
 C          0.032006260894       -0.502544331508        3.045196225674
 C         -0.072712469382       -0.694783758958        0.591136003154
 C          0.075392077785       -0.491516265162       -0.758303704139
 C          0.186727384132        0.855881485465       -1.385299614372
 C          0.075859204598        1.034653551873       -2.739209783900
 C          0.024817767291       -0.096613340848       -3.636284965883
 C          0.003271462780       -1.449352378970       -2.986165718714
 C         -0.045361484832       -1.612416993189       -1.615284132350
 O          0.025926709522       -1.688866590823        3.453932539424
 O         -0.204879143842        0.076509877548       -4.871796321605
