21
Frame 4
 N          0.018215940885        0.740148473132        3.834885394182
 N         -0.020130421662        1.361384862483        1.679609687327
 H         -0.003027554639        0.749166833460        4.835062574857
 H          0.213257907566        2.782318152865        3.186877873963
 H         -0.118129192023       -1.886382171806        0.804903510305
 H          0.062394522018        1.573562758719       -0.482794260346
 H         -0.257960713110        2.079861541089       -3.013269839851
 H          0.082242349276       -2.249934615725       -3.786905249205
 H          0.195114780574       -2.633695588506       -1.336057571541
 C          0.019678713932        1.781716207314        2.926413305921
 C         -0.028003957634       -0.022136130091        1.719094214873
 C         -0.120774208668       -0.435027236265        3.159612901983
 C          0.054845674169       -0.806752956755        0.595137919584
 C          0.107859804939       -0.504438823542       -0.802812803240
 C          0.085078636946        0.806872311006       -1.287227231548
 C         -0.112838349148        1.079494021219       -2.606293244245
 C         -0.012681559968       -0.027637593779       -3.584924614051
 C          0.024741837800       -1.417643519417       -3.052505844008
 C          0.060311879768       -1.622654024594       -1.709228396809
 O         -0.238583975314       -1.553500049243        3.734647915801
 O         -0.011612115706        0.205277548436       -4.814226243953
