21
Frame 4
 N         -0.128387310341        0.714698872186        3.874755328005
 N          0.141436423925        1.469005443148        1.708858737048
 H          0.023742157752        0.629186609768        4.870255048634
 H         -0.008041302074        2.794827677755        3.377873275641
 H          0.014080840184       -1.801350485705        0.898667019050
 H         -0.105097356669        1.634730961563       -0.589177969361
 H          0.023075005641        2.021008744151       -3.123962101563
 H          0.069052889800       -2.214740756494       -3.756674051961
 H          0.140447987494       -2.617509590047       -1.323514882850
 C          0.080926304184        1.812296133440        2.968254797711
 C          0.087908063542        0.066096531754        1.724684200957
 C         -0.071947220379       -0.451363175302        3.083707874024
 C          0.052347398281       -0.777843831388        0.600735405222
 C          0.046133224038       -0.560374216626       -0.756823784393
 C         -0.026346420437        0.822391827947       -1.280523297777
 C         -0.035416598561        1.035886541049       -2.641895415203
 C         -0.068035993854       -0.072281707702       -3.591622747643
 C         -0.115299249241       -1.416204495954       -3.050967161775
 C         -0.000427713257       -1.630794127875       -1.703840947832
 O         -0.141079077852       -1.598003446130        3.552298680969
 O          0.020927947824        0.140336490461       -4.841088006901
