21
Frame 4
 N          0.013567106821        0.667445778202        3.881312923098
 N         -0.194766577521        1.533965036907        1.783050738130
 H          0.219612378781        0.710299336926        4.892614561578
 H         -0.284314823849        2.721776032950        3.568745854800
 H         -0.120677620900       -1.770683480332        0.817516549010
 H          0.204951038174        1.605838700217       -0.641082556366
 H          0.237766747306        2.005501318802       -3.139931714813
 H          0.103900939031       -2.250684643060       -3.655000010331
 H         -0.092267867830       -2.599493160207       -1.225592546213
 C         -0.103325119864        1.790819810321        3.088814239003
 C         -0.055300678271        0.139296552650        1.700464849666
 C          0.079720109623       -0.487245567949        3.006895433659
 C         -0.065094828969       -0.733479571184        0.591252229425
 C         -0.107407476004       -0.493198919543       -0.783208573139
 C          0.035677318655        0.811235895829       -1.355155477712
 C          0.047962611929        1.026525674167       -2.707258227125
 C          0.024508639826       -0.085514102493       -3.647290010344
 C         -0.098033087499       -1.395205554721       -3.025412936035
 C         -0.058685893164       -1.606162687369       -1.649274410488
 O          0.253321945852       -1.639404810659        3.390818017531
 O         -0.041114862127        0.048368360548       -4.892278933335
