21
Frame 4
 N         -0.035548012800        0.749637602048        3.862726149318
 N          0.138538961077        1.425227593935        1.724049373031
 H         -0.080480686691        0.757556765610        4.836064677324
 H          0.101616198445        2.806123046269        3.374024737564
 H         -0.041412643240       -1.870731029603        0.833849768842
 H         -0.001516546474        1.640738133151       -0.563836575150
 H         -0.116833300421        2.024446079068       -3.020088951894
 H          0.158811035246       -2.171842916178       -3.866098246301
 H          0.068766745867       -2.649674220546       -1.376793501397
 C          0.078676379478        1.785205838842        2.995098810640
 C          0.054135295167        0.030412886220        1.755143684914
 C         -0.089164285523       -0.449213363546        3.138044681924
 C         -0.054938672290       -0.794232348704        0.650564834774
 C          0.031915891338       -0.564020202127       -0.772291524846
 C         -0.022140934123        0.802946008297       -1.316436764991
 C         -0.092922003436        1.019045155964       -2.653622359511
 C         -0.071852836852       -0.064402447444       -3.602950382932
 C          0.026579031096       -1.431562009822       -3.063717039885
 C          0.020414941348       -1.613582331693       -1.725571616266
 O         -0.092225019194       -1.566585633074        3.646301973340
 O          0.019580461981        0.134507393334       -4.854461728497
