21
Frame 4
 N          0.004190809041        0.692237925734        3.862456921360
 N         -0.032660106617        1.465132788615        1.798328852097
 H         -0.087207379204        0.696032544679        4.858129611409
 H         -0.044866963412        2.823095953284        3.463032960707
 H          0.264007962474       -1.830805403947        0.871243782706
 H         -0.118791627928        1.680898655589       -0.652385674910
 H          0.113094909972        2.018763625948       -3.120223428785
 H         -0.048931024633       -2.226697178125       -3.736380020774
 H         -0.095898790717       -2.652285211553       -1.356949631207
 C          0.081867155962        1.804667370117        3.056551445346
 C          0.054966330670        0.068592309996        1.751918420361
 C          0.004635312617       -0.454781468678        3.085644256105
 C          0.003845099676       -0.784028504779        0.623597777959
 C         -0.083078252085       -0.525693467749       -0.749766535317
 C         -0.098386239930        0.806485098175       -1.304144571984
 C         -0.025966699786        1.012152988113       -2.666427470856
 C          0.038833443066       -0.071544794386       -3.679372862784
 C         -0.069348567858       -1.402747450421       -3.047304663629
 C         -0.044562006379       -1.597917409576       -1.708089137659
 O          0.022356132297       -1.619590018041        3.559842186160
 O          0.161900502773        0.098031647005       -4.909702216305
