21
Frame 4
 N          0.026126859492        0.666653630879        3.783617749258
 N         -0.081015791022        1.469109260126        1.747161179900
 H         -0.087291329666        0.706298608296        4.753331163456
 H         -0.056840858909        2.752224203261        3.485497823739
 H          0.022182028903       -1.791435103148        0.936249376331
 H         -0.026916043461        1.642905007184       -0.613553913718
 H          0.013492718950        2.077002695909       -3.028512468602
 H         -0.097755075234       -2.293576173103       -3.677247063848
 H         -0.125771392937       -2.586476619753       -1.284059060925
 C          0.003166831537        1.791924574329        2.991396352037
 C         -0.014797279964        0.055378340944        1.692940665147
 C          0.086125839350       -0.531651957479        3.058861279845
 C          0.046670907412       -0.726222156579        0.592974861513
 C         -0.011932900930       -0.455077027427       -0.773317784390
 C         -0.001115373512        0.813964719517       -1.330639132401
 C         -0.027464770939        1.011277771181       -2.696964056096
 C          0.060788130664       -0.095043648032       -3.633133640817
 C          0.046380174267       -1.383733200526       -3.024755047054
 C         -0.065453713527       -1.554923482222       -1.674553090200
 O          0.137246845561       -1.635762843346        3.546651486235
 O          0.154174193966        0.067163399988       -4.851946679410
