21
Frame 4
 N         -0.092839597493        0.697062611359        3.929838578141
 N          0.092827105467        1.460244822040        1.752751074497
 H         -0.306854541484        0.666094927990        4.893090758825
 H         -0.081356840810        2.849351609197        3.356949391232
 H          0.311048876965       -1.817470313411        0.910782904869
 H          0.335582561451        1.650978559427       -0.665455003474
 H         -0.021589906655        2.059562122369       -3.049248548195
 H         -0.253287214491       -2.237169322921       -3.736771767425
 H          0.213950269441       -2.644759621747       -1.471964194223
 C         -0.018157270837        1.791422265879        3.013578701453
 C          0.052160097675        0.066113375008        1.755554219243
 C         -0.099028428910       -0.504467029418        3.167133101544
 C          0.226351575183       -0.757064399731        0.652652945592
 C          0.228584376889       -0.482983980925       -0.761612668796
 C          0.227717117957        0.812841226492       -1.350581625522
 C         -0.065232297906        1.007808623900       -2.679934846757
 C         -0.188721739884       -0.084269394779       -3.684424959690
 C         -0.163070057981       -1.385422294049       -3.070633843332
 C          0.103515283889       -1.579482647446       -1.709871557650
 O         -0.256636454967       -1.637793820925        3.676994034218
 O         -0.244962913498        0.069402681687       -4.928826694550
