21
Frame 4
 N         -0.028881652148        0.683296372307        3.912342420564
 N         -0.093158050761        1.459246783855        1.834813231229
 H          0.282612408545        0.555937404050        4.866022430681
 H         -0.033785596190        2.883873476964        3.343698922991
 H         -0.163965115835       -1.819514146905        0.850605358987
 H         -0.095714384507        1.633558887945       -0.637737302107
 H          0.079911783923        1.987851345163       -3.133643577215
 H          0.215263689864       -2.272967487576       -3.688881031044
 H         -0.089054090847       -2.630933311470       -1.287563739041
 C          0.002975071018        1.805705478468        3.077043998107
 C         -0.160943124100        0.091680047099        1.732232230459
 C         -0.041950387449       -0.450353409989        3.138403531183
 C         -0.101712632128       -0.776063284186        0.602206597292
 C          0.046555273683       -0.489289959991       -0.788838881239
 C          0.029034499887        0.823109094855       -1.338954759521
 C         -0.010757597458        0.992827232430       -2.692464777649
 C          0.014105249100       -0.068216365569       -3.659076375982
 C          0.005156177982       -1.411440699154       -3.063164653919
 C         -0.019045276475       -1.584947627522       -1.724042342408
 O          0.127444320855       -1.590996995331        3.570334838440
 O          0.035909433041        0.177637164556       -4.913336119809
