21
Frame 4
 N          0.160091421554        0.750613574362        3.854177948353
 N         -0.094418745317        1.352350230359        1.700475232865
 H          0.091313749951        0.847027564528        4.876554887302
 H         -0.058766410172        2.774640363895        3.159788645685
 H         -0.050651961803       -1.908345175419        0.816865799616
 H         -0.225404985561        1.652477761824       -0.583300710521
 H         -0.027203136678        2.022074833349       -3.039932462183
 H          0.024796242470       -2.187495637950       -3.798879199779
 H         -0.168305567408       -2.616004192193       -1.376226344404
 C          0.006135435554        1.752060783441        2.898929802325
 C         -0.112931409654       -0.056370366867        1.762485621927
 C          0.065841471542       -0.493532851451        3.160202504444
 C         -0.152974054295       -0.823830843083        0.607483671376
 C         -0.050551370537       -0.547493557706       -0.756858643656
 C         -0.064516606797        0.838015354920       -1.252297354512
 C          0.162581026563        1.046503599915       -2.615805135784
 C          0.156829467683       -0.031668357392       -3.581136312237
 C          0.095250121306       -1.400583259244       -3.037246905499
 C         -0.089594515940       -1.601885924110       -1.722668245205
 O          0.166450585417       -1.586020442367        3.736414860970
 O          0.166029242122        0.217466541188       -4.809027661082
