21
Frame 4
 N         -0.055121762072        0.672674115406        3.889233338916
 N         -0.007116785132        1.435818918290        1.745134847145
 H         -0.086625047826        0.739868324004        4.889492007761
 H         -0.212699355675        2.753368329142        3.435767275671
 H          0.156843256620       -1.824327290291        0.857355484187
 H          0.161761873608        1.741706804564       -0.770945242049
 H          0.053364298835        2.030768538588       -3.137194346529
 H         -0.219967425789       -2.241093349373       -3.663210179367
 H          0.036045521649       -2.518214062050       -1.220694598652
 C         -0.049148615198        1.751901340419        3.018759298870
 C          0.102233943473        0.018317219829        1.768313892736
 C          0.034221398127       -0.538810549161        3.118973241283
 C          0.077719008610       -0.775952571077        0.641963251108
 C          0.107261251237       -0.466900201417       -0.746951098446
 C          0.084870787717        0.834798266497       -1.372594402142
 C          0.034183380369        0.992190342117       -2.706927962284
 C         -0.001319230130       -0.087522740771       -3.686328946011
 C         -0.142474176776       -1.363855428306       -3.044240650807
 C          0.016687087802       -1.551867121833       -1.670444950580
 O         -0.039656961669       -1.683654260153        3.589034064008
 O         -0.051062447780        0.080785375576       -4.934494324817
