21
Frame 4
 N          0.090285711743        0.672671916205        3.898606949721
 N          0.034512454495        1.437141297855        1.786210549779
 H         -0.087743193965        0.740756706054        4.904728149441
 H          0.280738372120        2.787739104759        3.446411783134
 H         -0.140125090478       -1.818601294132        0.877790682754
 H         -0.332801657845        1.659778671407       -0.689528167212
 H         -0.133321614163        2.010181854502       -3.179207376057
 H          0.296292548095       -2.239299477469       -3.778559418162
 H         -0.027800217385       -2.558843594592       -1.182755431510
 C          0.167792586381        1.796373723032        3.036543708975
 C         -0.059992429958        0.046489863076        1.760971596514
 C          0.057298523851       -0.529541478350        3.123647027651
 C         -0.139130757759       -0.743351354854        0.615163075562
 C         -0.146066913715       -0.473181318398       -0.759842264917
 C         -0.188900486823        0.854708494328       -1.369361261191
 C          0.001662635936        1.029160294426       -2.735467854251
 C          0.142625101236       -0.097333463850       -3.669910559942
 C          0.079676818095       -1.415344180028       -3.021605331138
 C          0.012733537979       -1.555943048876       -1.673523429680
 O         -0.029955019632       -1.710270898485        3.531082392136
 O          0.122219091791        0.106708183389       -4.921394821606
