21
Frame 4
 N          0.068416628951        0.709456026609        3.874174738658
 N         -0.006272866734        1.433367976379        1.751729510533
 H         -0.146430995334        0.643227614429        4.867111531568
 H         -0.144708404219        2.825314047534        3.365737217146
 H          0.064334201215       -1.812491470466        0.908994845211
 H         -0.097069327430        1.616582807267       -0.625151220671
 H          0.148369637929        2.008313054864       -3.147465851614
 H         -0.040617478901       -2.179860858136       -3.761469142251
 H         -0.242430314252       -2.607180952428       -1.189476938068
 C         -0.067007160585        1.779304321682        2.976441357441
 C          0.062097917313        0.054787575346        1.723307328444
 C          0.171851845667       -0.467804450696        3.094893498233
 C         -0.028939819708       -0.790929069714        0.605062855591
 C         -0.168799826577       -0.500481539548       -0.745916428119
 C         -0.094252508051        0.811004079361       -1.310969207708
 C          0.012065728911        1.070532574975       -2.677366538993
 C          0.092657440201       -0.067968246866       -3.627878011430
 C         -0.058908337380       -1.381673351937       -3.029403365313
 C         -0.146128084060       -1.577733955750       -1.674874000179
 O          0.338302152000       -1.648040715914        3.458818015375
 O          0.283469571047        0.082274533010       -4.836300193856
