21
Frame 4
 N         -0.006976889174        0.687528256882        3.854658590167
 N         -0.004234666162        1.467242484131        1.748580554551
 H         -0.149117290697        0.702697699600        4.852058038349
 H         -0.076448409873        2.803490350356        3.297110987568
 H          0.169477881178       -1.854148024035        0.870069784974
 H          0.324073557392        1.654827035266       -0.539983829142
 H         -0.080900355745        2.028357938738       -3.113106899484
 H         -0.123484107439       -2.223650774107       -3.787401855606
 H          0.105387970200       -2.591701193409       -1.250888078932
 C         -0.056809220216        1.773606038451        2.995289213660
 C          0.035772525535        0.055058854881        1.725667619268
 C         -0.110130310156       -0.481010310532        3.060828995993
 C          0.127970042504       -0.772663955294        0.603501944735
 C          0.163961671663       -0.516554684331       -0.768068542472
 C          0.211230012566        0.819934678959       -1.273984166872
 C          0.034632389316        1.062222856685       -2.631093600712
 C         -0.101792621803       -0.059530581635       -3.593777069017
 C         -0.013647479903       -1.404323588428       -3.050410883923
 C          0.111092360258       -1.614430463403       -1.696537438954
 O         -0.223622776427       -1.615843669618        3.499648314440
 O         -0.336434283017        0.078891050843       -4.802161678590
