21
Frame 4
 N          0.055477370817        0.623785623921        3.891134592898
 N         -0.217384262418        1.540832824877        1.856465548744
 H          0.465918684024        0.588651797909        4.829390824533
 H         -0.237888783640        2.722607616353        3.569092217096
 H         -0.128345622592       -1.733003190657        0.948372790226
 H          0.004666820377        1.768625334038       -0.836167295355
 H          0.234305026514        2.017375049161       -3.195167520505
 H          0.139092674106       -2.287701971885       -3.728389888439
 H         -0.205737184799       -2.592231498666       -1.204738300214
 C         -0.118985568616        1.750619968100        3.117722052700
 C         -0.242801403534        0.121642167508        1.770287712213
 C          0.055934683477       -0.499655511391        3.045006407813
 C         -0.169846870121       -0.705703187084        0.642227987872
 C         -0.085998019872       -0.435278196144       -0.738179308471
 C         -0.091056560470        0.858726601657       -1.398523693840
 C          0.047809028393        1.060404389813       -2.740330978228
 C          0.096323069382       -0.130501626050       -3.668148093173
 C         -0.011861553428       -1.431932427886       -2.992980172979
 C         -0.076387302940       -1.557709146734       -1.647244564796
 O          0.316661856489       -1.663405326715        3.407796265402
 O          0.170103918851       -0.016149290124       -4.927626583499
