21
Frame 4
 N         -0.071931130570        0.727861049116        3.884369245915
 N          0.196734987736        1.407972195433        1.743096327690
 H          0.054426687964        0.775345367715        4.892377078207
 H          0.361832397189        2.817609059856        3.233355023487
 H          0.006995051993       -1.916594124329        0.962853884549
 H         -0.347197407978        1.674172850701       -0.654102034838
 H         -0.269955910388        2.037371343575       -3.044362640221
 H          0.224605471860       -2.198358445295       -3.732429412164
 H         -0.014099016314       -2.682866025694       -1.355144562172
 C          0.128921704801        1.779010517187        3.014740645140
 C         -0.069744375908        0.051935811890        1.724584870369
 C         -0.137873012066       -0.486080786317        3.101712504827
 C         -0.044391250362       -0.840932226583        0.674516498110
 C         -0.080624037300       -0.536322162681       -0.735250359409
 C         -0.185728962648        0.804090114733       -1.321461718345
 C         -0.129679804615        1.045229591372       -2.673523268185
 C          0.152045030917       -0.021909732169       -3.644901140827
 C          0.056001742528       -1.369098035213       -3.048160393387
 C         -0.006305170460       -1.626338257964       -1.715172297933
 O         -0.118467056896       -1.638026187249        3.578001219691
 O          0.294434060517        0.195928081916       -4.885099470506
