21
Frame 4
 N          0.034170862459        0.679537743814        3.848079989123
 N         -0.002458090268        1.428578919363        1.703213919808
 H          0.159202306043        0.695527182727        4.822220532724
 H         -0.133346844579        2.806865157763        3.376534388956
 H         -0.050595348683       -1.808151572119        0.995872726496
 H         -0.072892012959        1.646752891209       -0.604345019022
 H          0.013226306852        2.054137837506       -3.074039648568
 H          0.294818939432       -2.172849528253       -3.697107848228
 H         -0.234759925804       -2.708524843438       -1.377721231543
 C          0.059809153140        1.802068882829        2.989458198180
 C          0.032700008469        0.070789942248        1.749217382225
 C          0.089552758405       -0.477472234027        3.077299695215
 C         -0.122306615330       -0.773695630962        0.644552496921
 C         -0.211309343068       -0.535263729210       -0.794559397222
 C         -0.030200567094        0.817572412499       -1.323467355774
 C         -0.065739052807        1.045324433383       -2.692262286443
 C          0.035089394964       -0.072487757035       -3.623710182853
 C          0.042756468166       -1.392154276533       -3.038804341061
 C         -0.142093600761       -1.670665815445       -1.726820628929
 O          0.093698703713       -1.601774256425        3.602216502031
 O          0.210676499709        0.165884240106       -4.855827892037
