21
Frame 4
 N         -0.065880758609        0.738317180157        3.829175493534
 N          0.128850400126        1.451895557809        1.712910957080
 H         -0.024974106516        0.731287513579        4.837158884513
 H          0.268609774663        2.869668157307        3.274662651320
 H          0.067783892615       -1.896969321342        0.930394048784
 H         -0.182650093786        1.600347367164       -0.590035904937
 H         -0.098255352295        2.010668515127       -2.968242217814
 H          0.099649384888       -2.170847929245       -3.816240726847
 H          0.125698652094       -2.617749525274       -1.226136448711
 C          0.069557504257        1.796901967250        2.984603942629
 C          0.017097702582        0.042947763135        1.677427803833
 C         -0.080803368905       -0.464894132815        3.087204795529
 C          0.082918943089       -0.846719183208        0.603677703855
 C         -0.049231219279       -0.570547553750       -0.789561604476
 C         -0.139950470934        0.777484853404       -1.290994257548
 C         -0.176589225745        1.021631380227       -2.612621276897
 C          0.004279232075       -0.021412463402       -3.599638469472
 C         -0.008944945623       -1.417454825459       -3.046362974423
 C          0.022202951171       -1.656357565431       -1.710480335272
 O         -0.238386078290       -1.608873525945        3.512372638652
 O          0.179017182424        0.230675770711       -4.799274703332
