21
Frame 4
 N         -0.364878973996        0.744684320830        3.783652976182
 N          0.342460030050        1.432109963312        1.782727886719
 H         -0.638118495433        0.706810142415        4.762413267036
 H          0.185948206386        2.816289700968        3.436973653426
 H          0.222694169206       -1.856088799859        0.850719124769
 H          0.222627054345        1.624733219463       -0.586045525136
 H          0.008548494028        2.019845687942       -3.135657245834
 H         -0.068587420245       -2.207385608611       -3.716665307907
 H          0.180210299733       -2.570456458271       -1.336294458781
 C          0.048183569746        1.797529814306        3.002597301438
 C          0.129364346301        0.031828952855        1.720601065899
 C         -0.130896150044       -0.471971619211        3.096360353114
 C          0.255459556759       -0.795694870908        0.587204989714
 C          0.235742102527       -0.510039525795       -0.786520666943
 C          0.180448422101        0.822931174227       -1.324103289930
 C          0.052282920023        1.010283217236       -2.643340342406
 C         -0.262156545816       -0.059895044161       -3.552367635371
 C          0.005717047525       -1.381459979258       -3.029379806109
 C          0.182460221010       -1.572751077921       -1.695959909047
 O         -0.130378861596       -1.642391295954        3.520416113829
 O         -0.657129992609        0.061088086394       -4.737332544661
