21
Frame 4
 N         -0.034584896519        0.673896094414        3.853821319564
 N         -0.093384605815        1.545154035041        1.775154370473
 H          0.259534758093        0.752278554451        4.832165338942
 H          0.064890375483        2.789869470870        3.564157107369
 H         -0.022954510047       -1.848962035837        0.799653978828
 H         -0.216211838195        1.640362494603       -0.665305442456
 H          0.069508348204        2.061700536822       -3.037066860571
 H          0.047976516228       -2.290987087767       -3.692458813154
 H         -0.071356001517       -2.652174156462       -1.343043037453
 C         -0.022522527106        1.812416240351        3.049199131540
 C         -0.118815867234        0.086847934205        1.732576333403
 C         -0.036372686631       -0.473755956726        3.086472343640
 C         -0.048589234828       -0.768253438219        0.589723953501
 C         -0.026417790867       -0.482121808080       -0.782995515823
 C         -0.044558501641        0.803966114631       -1.330328909720
 C         -0.033064021242        1.016962769452       -2.668358805132
 C          0.049543622462       -0.069231604671       -3.644695512374
 C          0.032382471307       -1.420340204459       -3.035618093850
 C          0.048047702151       -1.620911904366       -1.734135801098
 O          0.032847877399       -1.636450610455        3.544603492436
 O          0.164100810316        0.079734562202       -4.893520578066
