21
Frame 4
 N         -0.120822170658        0.705038141293        3.849674248115
 N          0.148560780249        1.457743181847        1.781019094853
 H         -0.240690512022        0.731509360528        4.837078387803
 H          0.048435265997        2.792100934392        3.460836638961
 H          0.069874758087       -1.886454131631        0.846706477211
 H          0.165200419585        1.683373331383       -0.603280153215
 H          0.026347385735        2.055912901301       -3.134629019433
 H          0.091476476231       -2.287162581618       -3.700733424930
 H          0.078129398660       -2.614891929591       -1.223037107851
 C         -0.020926993367        1.807394974277        2.990196106317
 C          0.141349387339        0.032792148616        1.724488140584
 C         -0.005890656942       -0.483987468850        3.112880257405
 C          0.123884859464       -0.809409925528        0.609129812390
 C         -0.053324346553       -0.507192732329       -0.776705045848
 C         -0.003019979912        0.829496415360       -1.335873605767
 C         -0.070767440118        1.037481566297       -2.683509536920
 C         -0.133821627169       -0.055134168123       -3.637114877620
 C         -0.004187888045       -1.397808793253       -3.059924620944
 C         -0.051574532473       -1.578431486388       -1.711155295973
 O         -0.057812589685       -1.639494199186        3.536529204206
 O         -0.130419994401        0.127124461204       -4.882575679347
