21
Frame 4
 N          0.036898486076        0.763995522765        3.901900456293
 N         -0.149307015473        1.409425162311        1.764601713831
 H          0.078903044738        0.788873109091        4.919230753411
 H         -0.211275343016        2.776031086221        3.369491092056
 H         -0.062140000897       -1.926694359189        0.799329714500
 H          0.136302734088        1.743491001866       -0.727033599824
 H          0.274508413444        1.985055377337       -3.033177924008
 H          0.013920550648       -2.218399137362       -3.838613479924
 H          0.016348497990       -2.606794667365       -1.298598756591
 C         -0.094060504337        1.751612267276        2.990855998419
 C         -0.064845646032       -0.020016218137        1.755729005911
 C          0.049800224891       -0.449108054005        3.157710317280
 C          0.006911812051       -0.850508862998        0.626468926111
 C         -0.019044542269       -0.510843465262       -0.756370279880
 C          0.110633796349        0.821859649416       -1.301933275615
 C          0.065842717645        0.973028639963       -2.650347215660
 C         -0.092601490708       -0.054739933894       -3.650691283973
 C         -0.069408576203       -1.357027154619       -3.074616998339
 C          0.029691253237       -1.582686964305       -1.711314358363
 O          0.117897009710       -1.584117909384        3.665846447653
 O         -0.174975421932        0.147564910272       -4.908467253288
