21
Frame 4
 N          0.005167029644        0.610160240402        3.894758142481
 N         -0.018197585820        1.515386065082        1.850804664391
 H          0.119507307617        0.513080859865        4.904834343656
 H          0.175865677256        2.737485241710        3.548123380100
 H         -0.193217837553       -1.685906207810        0.863271568821
 H         -0.185750755682        1.760521574344       -0.847273307273
 H         -0.023245182811        1.987566445349       -3.133917751446
 H          0.161756583687       -2.322776470853       -3.630064913138
 H          0.223249825523       -2.552603918193       -1.246898676286
 C          0.084965843367        1.769287625537        3.121958220656
 C         -0.071202933918        0.135271021629        1.742294837186
 C         -0.125378780837       -0.488447915558        3.064332043939
 C         -0.074535574496       -0.655118648898        0.630002907734
 C          0.055611368461       -0.443784433030       -0.770752822259
 C          0.017234299997        0.827440256906       -1.418825092602
 C          0.027472512163        0.994017726475       -2.766795855686
 C         -0.030609700510       -0.125549468580       -3.664012113321
 C          0.055389359086       -1.465440637616       -3.048636841261
 C          0.111059982290       -1.571183576963       -1.692139689681
 O         -0.170210166088       -1.606661789052        3.522659674155
 O         -0.144931271375        0.067256009253       -4.923722720167
