21
Frame 4
 N          0.085818578606        0.657023432964        3.876836608692
 N          0.018495813789        1.478695672046        1.749588748976
 H         -0.134782560579        0.733877022918        4.857209516482
 H          0.223888540937        2.663304069790        3.498722721398
 H         -0.205031644575       -1.738120930266        0.881230923759
 H         -0.122722263964        1.702837164795       -0.679148961081
 H         -0.154248247032        2.029511276317       -3.082188586868
 H          0.134052063978       -2.290252054879       -3.675212392054
 H          0.062718357695       -2.551249106369       -1.274191226996
 C          0.061478968076        1.738107864234        3.041124263642
 C         -0.044171309992        0.066355059006        1.724371699047
 C         -0.014408873219       -0.486777095276        3.097562619997
 C         -0.021184329770       -0.717492815782        0.614057459992
 C         -0.081973804617       -0.451977672145       -0.746581583368
 C         -0.098184969854        0.864988085091       -1.358680756689
 C         -0.046077353730        1.008844161979       -2.738979571748
 C          0.059088890026       -0.124438427435       -3.688621651552
 C          0.022401235684       -1.404495318062       -3.044046498476
 C          0.010116541880       -1.560387960715       -1.675112425577
 O          0.067642310492       -1.656894234990        3.511187990912
 O          0.177084056170        0.038541806778       -4.889128898488
