21
Frame 4
 N          0.033107931475        0.696658565620        3.924092191946
 N         -0.189702393623        1.387269145705        1.751588737079
 H          0.021513798047        0.732117495464        4.943698364914
 H         -0.215089745801        2.797033476848        3.349297555255
 H          0.123006328177       -1.869519743422        0.886147442151
 H          0.041915927012        1.714698558606       -0.664592637986
 H          0.181855750604        2.072191881713       -3.197370098808
 H         -0.242947629749       -2.248821044451       -3.720874451324
 H         -0.106237017595       -2.631746227544       -1.341287970429
 C         -0.191047937689        1.790661706170        3.009807819859
 C         -0.022639555763        0.017551828627        1.734600324277
 C          0.095259816801       -0.505802640807        3.145628497112
 C          0.021854153532       -0.806704124160        0.628304113883
 C          0.063075527595       -0.476764925953       -0.765896426573
 C          0.081313194007        0.853085946607       -1.329462357761
 C          0.144360282276        1.063088882910       -2.709587141706
 C          0.044281284857       -0.055594115922       -3.669049477676
 C         -0.153945881134       -1.412610319746       -3.039592824407
 C         -0.054402794856       -1.583484973865       -1.682409699912
 O          0.237038424110       -1.644712310270        3.651253976300
 O          0.087430537716        0.111402937870       -4.904295936194
