21
Frame 4
 N         -0.140320612949        0.682176125528        3.867625990622
 N          0.014024494636        1.481608526824        1.772065909444
 H         -0.237775511259        0.622794215934        4.836684169492
 H         -0.114380743728        2.780185856709        3.468771616642
 H          0.082219972269       -1.782899218261        0.932954840077
 H          0.302018443042        1.649243104215       -0.652883581489
 H          0.017005412029        2.047413012274       -3.203430392531
 H         -0.120468197015       -2.267947924205       -3.624780346785
 H          0.001959542844       -2.641565657611       -1.267378563493
 C         -0.174951500011        1.771014684160        3.046635302461
 C          0.166395849026        0.096740312912        1.730687711218
 C          0.034375140263       -0.499297540615        3.069799223140
 C          0.154838878172       -0.690615477948        0.589602014096
 C          0.130519339579       -0.485416480703       -0.825306161299
 C          0.229443427540        0.813349896057       -1.349448305042
 C          0.146018878212        1.055146518510       -2.718353679748
 C         -0.101297644819       -0.051450451904       -3.641525110590
 C         -0.062671730910       -1.451085309261       -2.996683660050
 C          0.032727343387       -1.609987628029       -1.647489686376
 O          0.006167564571       -1.650596925277        3.476126456141
 O         -0.365848344878        0.131190360691       -4.863673745931
