21
Frame 4
 N         -0.080751641754        0.694028372252        3.851586242000
 N          0.071043775930        1.395806173706        1.733450450474
 H          0.045299461975        0.809785762609        4.880743069871
 H         -0.136715678215        2.834480319640        3.293633798714
 H          0.078851569531       -1.855856418775        0.932176127838
 H          0.004623151652        1.612089744731       -0.490380918199
 H         -0.017900740789        1.991330624290       -3.145785533765
 H         -0.180694647461       -2.146174947638       -3.795126067216
 H          0.175066388153       -2.595362774234       -1.370515611842
 C          0.022364349356        1.777062854264        2.965357157280
 C          0.056762196923        0.002849150405        1.750094789566
 C          0.023162296349       -0.512842840904        3.118083282853
 C          0.054740887742       -0.788457135092        0.661483317611
 C          0.072292587325       -0.469580853539       -0.752915805427
 C          0.033697083911        0.842897890813       -1.289298005471
 C         -0.023589718082        1.023730939529       -2.652831580273
 C         -0.009237564074       -0.064462616430       -3.614498556951
 C         -0.155948380048       -1.403807720708       -3.037313662846
 C          0.026481651563       -1.593792650751       -1.710076010423
 O         -0.167734987562       -1.650562159477        3.527511516250
 O          0.108187957574        0.096838285309       -4.855378000044
