21
Frame 4
 N          0.201449098309        0.723263267465        3.887125793287
 N         -0.148475541659        1.409740458040        1.751998452469
 H         -0.066369207062        0.755983376112        4.876580599421
 H         -0.076144456960        2.812211043715        3.247460321330
 H          0.193180842130       -1.902056529861        0.823403344544
 H         -0.003807752976        1.753952736793       -0.714385868167
 H          0.128907418345        2.030811447365       -3.064615263731
 H         -0.061379771736       -2.238755471824       -3.724930240532
 H         -0.052970195327       -2.613124233933       -1.342323246094
 C         -0.059135221718        1.756105624309        2.966518703385
 C         -0.088626375722        0.013163046388        1.741053817449
 C          0.022824495465       -0.531889949520        3.120814805593
 C         -0.063577445886       -0.833301437583        0.662612868128
 C         -0.116665608264       -0.491645006155       -0.735131510480
 C          0.031019278333        0.855772349081       -1.307149856328
 C          0.107930482731        1.028641246843       -2.647420629812
 C          0.029272507960       -0.071060781882       -3.618742006193
 C         -0.025327061083       -1.403131737980       -3.039893223688
 C         -0.008832275555       -1.583350598507       -1.695005628086
 O          0.062275664418       -1.644399503681        3.660726711051
 O         -0.005548873742        0.173070654813       -4.848697943548
