21
Frame 4
 N         -0.017875474883        0.641790677775        3.908278749465
 N          0.090334456263        1.537017846381        1.867566280666
 H         -0.017970814208        0.545364052531        4.908099279983
 H          0.014169273643        2.766516539323        3.586660301820
 H          0.083922111895       -1.811657827592        0.816658313406
 H          0.000134498234        1.698161814758       -0.760578992146
 H         -0.065571700405        2.050481252545       -3.294171852957
 H          0.078535543478       -2.341657520978       -3.663104290659
 H         -0.019027888943       -2.598988043731       -1.136365431931
 C          0.055934713618        1.794550693737        3.132163281943
 C          0.016872492043        0.106691304680        1.752064612634
 C          0.018621969169       -0.490269863792        3.044923788743
 C         -0.014729819715       -0.709761337299        0.594414761351
 C         -0.131201394272       -0.448567516446       -0.760538285948
 C         -0.092871872940        0.846694242430       -1.386310329495
 C         -0.090783203710        1.045467084306       -2.792464816550
 C          0.020211308169       -0.097868692245       -3.705930390008
 C          0.010436758825       -1.425735747715       -3.059947085164
 C         -0.034338753432       -1.580546840057       -1.667337420937
 O         -0.063682790157       -1.609873243507        3.552751828609
 O          0.158880587327        0.082191124894       -4.936832302825
