21
Frame 4
 N          0.049413750238        0.695002317969        3.882747181489
 N          0.029071077627        1.515943750042        1.784149613259
 H         -0.233218731962        0.652012818239        4.864437807558
 H         -0.095258693619        2.821899933341        3.448230464434
 H          0.069017197551       -1.824094339448        0.900820356311
 H         -0.032551498809        1.684691412909       -0.639516575178
 H          0.178088926889        2.069660121588       -3.042072078294
 H         -0.209513249862       -2.265753416291       -3.697674005333
 H          0.127994198073       -2.615219951078       -1.282406266456
 C         -0.089289695382        1.796919051755        3.031989570798
 C          0.074049948688        0.108123353943        1.733067117876
 C          0.073167622810       -0.474432893312        3.033489100526
 C          0.112686551055       -0.781799312432        0.617242715571
 C          0.116916850168       -0.520777668589       -0.781092986322
 C          0.072952032317        0.792641605867       -1.349827319355
 C          0.151816902428        1.010255791211       -2.700585402315
 C         -0.007859053944       -0.054375563423       -3.646558797444
 C         -0.039210151767       -1.413959548729       -3.010941891751
 C          0.086993241408       -1.629349576691       -1.709395760083
 O         -0.108943656406       -1.641927870674        3.433820288796
 O         -0.326323567501        0.074539983803       -4.869923134085
