21
Frame 4
 N          0.036934316094        0.655024950384        3.884231789934
 N          0.058801790764        1.423084312959        1.745208590399
 H         -0.287910890176        0.736679170962        4.838114777470
 H          0.278183499517        2.733745020509        3.284384135405
 H          0.151697422287       -1.846962930091        0.806845639393
 H         -0.018136013073        1.688556691276       -0.626061383821
 H         -0.095279443156        2.068989991574       -3.152936551953
 H         -0.044814604305       -2.246897057907       -3.701977219846
 H          0.359425855492       -2.527625033165       -1.244452559714
 C          0.057140797771        1.751228032537        3.003298438998
 C         -0.042285660239        0.024625999398        1.791940017560
 C         -0.216373603350       -0.532656952389        3.108857787413
 C          0.097751493113       -0.746759916383        0.651164144482
 C          0.214651626378       -0.449407135641       -0.741098338761
 C          0.131504689054        0.863561113061       -1.355002083425
 C         -0.017224706419        1.058908750483       -2.737379948479
 C         -0.142476751497       -0.081892271009       -3.639458894024
 C         -0.071401910667       -1.401547214651       -3.001251362106
 C          0.098586185269       -1.548768286097       -1.662096498880
 O         -0.316663130294       -1.675772414001        3.617647487151
 O         -0.232110962561        0.053885178191       -4.869977967196
