21
Frame 4
 N          0.069823774594        0.704210558063        3.875915467993
 N          0.068333539687        1.426727088781        1.734854974012
 H         -0.342502768055        0.709916432442        4.766466711048
 H         -0.072106658809        2.832883608627        3.318526526324
 H          0.090422061815       -1.872585212714        0.977190932686
 H          0.137463170346        1.641140866766       -0.574638181710
 H          0.050623985356        2.010746213382       -3.162169933949
 H         -0.112737952991       -2.202378089456       -3.807520211738
 H          0.099824047109       -2.601920779732       -1.271031622864
 C         -0.021442994650        1.797548887135        2.978635140383
 C          0.104419713724        0.000091495638        1.748027693854
 C         -0.002251589793       -0.497372691473        3.101316303175
 C          0.124782016179       -0.832176459951        0.645090677140
 C          0.105357745755       -0.519068652408       -0.772482049893
 C          0.111901533592        0.816179240719       -1.284309869770
 C          0.113721147063        1.054707707214       -2.659118599953
 C         -0.143554273506       -0.042565987130       -3.633655149131
 C          0.006958452974       -1.440583806659       -3.083159827745
 C          0.116009812185       -1.617220722792       -1.729083837603
 O         -0.158828619930       -1.593572137644        3.669024793705
 O         -0.346216142645        0.225292441191       -4.837879935967
