21
Frame 4
 N         -0.069992535160        0.730732163340        3.877010386868
 N          0.153747195388        1.446707824138        1.720542336129
 H         -0.203676822425        0.743379697503        4.861148686301
 H         -0.245113790975        2.814290021606        3.265231306346
 H         -0.013494008968       -1.857948954891        0.942850173418
 H          0.066005947306        1.652808819453       -0.589892860039
 H          0.080675789701        2.007019946774       -3.156330157173
 H         -0.070464427571       -2.180177062825       -3.823917933141
 H         -0.015887790990       -2.691405089856       -1.318833469169
 C          0.020676386366        1.796680061342        2.991579191867
 C          0.185636558839        0.056021601322        1.748933116564
 C          0.096911629380       -0.472135250982        3.110333023524
 C          0.081691701900       -0.795935994590        0.640631876368
 C          0.012176927528       -0.593074754409       -0.760435017563
 C          0.023305807699        0.775366290317       -1.292325220304
 C          0.045046159722        1.059301646714       -2.624428800266
 C         -0.048453928843       -0.047990844942       -3.610442960562
 C         -0.141923069107       -1.373336168575       -3.029402713695
 C          0.016306401298       -1.643895521955       -1.700954401734
 O          0.062971343104       -1.651705309611        3.547675833485
 O         -0.036145474192        0.225296880129       -4.798972397226
