21
Frame 4
 N         -0.013336038207        0.715895392591        3.813741011122
 N          0.211754757117        1.441205043843        1.761888028843
 H         -0.100578612463        0.664600443978        4.832750485882
 H          0.348713229770        2.799152553262        3.335247698054
 H         -0.182516459356       -1.855237837885        0.925923279118
 H         -0.350417511925        1.730065565905       -0.709895683393
 H         -0.335782150105        2.025363737327       -3.096867506369
 H          0.320384612169       -2.245429198409       -3.711446319211
 H         -0.046261475139       -2.659970407084       -1.327085831877
 C          0.171048748167        1.794035435530        3.011977828551
 C          0.036793014345        0.044443890713        1.738256425474
 C          0.015132899343       -0.527952632545        3.079254488346
 C         -0.033453546837       -0.798589503256        0.610902653729
 C         -0.179728783837       -0.475861240595       -0.787365029290
 C         -0.183922364204        0.860448741851       -1.339827230174
 C         -0.120216827422        1.057028784760       -2.677091233977
 C          0.083337207708       -0.055443809539       -3.592610288154
 C          0.087870318209       -1.411923183011       -3.026854502413
 C         -0.041306601499       -1.596114504137       -1.680011977607
 O         -0.063607134748       -1.643109909232        3.636668818631
 O          0.376092718913        0.137392635935       -4.797555115284
