21
Frame 4
 N         -0.047314889457        0.639279303469        3.920801807495
 N          0.048264859348        1.600748387552        1.900775032785
 H          0.076656024710        0.515733149148        4.922531664427
 H         -0.076751116125        2.764492823231        3.684397136900
 H          0.010477359333       -1.706110516729        0.925975127754
 H          0.077977839940        1.683741629586       -0.746568942287
 H          0.088601134587        2.036153214644       -3.223675938752
 H          0.059730382187       -2.303530902641       -3.735038385045
 H          0.137056831073       -2.565244357053       -1.211138561490
 C         -0.037046935941        1.838651392463        3.189852373670
 C          0.047290341336        0.194009758690        1.723896593088
 C         -0.014359642236       -0.477766861244        3.077644086550
 C         -0.038252180948       -0.666012717782        0.614160258567
 C         -0.010862394155       -0.453399069991       -0.797424286142
 C          0.028627443630        0.818908771532       -1.411895433407
 C          0.023254393707        0.996330141870       -2.793264512948
 C         -0.055211876795       -0.146118260947       -3.699719771132
 C         -0.023669873745       -1.428329132328       -3.050803505612
 C          0.021756963570       -1.580283499686       -1.716331458796
 O         -0.141598141081       -1.689853517424        3.377240554600
 O         -0.174626522941       -0.071399736360       -4.951413840226
