21
Frame 4
 N         -0.105376418126        0.724502599786        3.885351487642
 N          0.198560273157        1.443667578926        1.778830642419
 H         -0.325326435555        0.712954121435        4.854900060507
 H          0.241464903377        2.765244602214        3.411557394783
 H          0.025229287799       -1.844386228460        0.918663715571
 H          0.080660664442        1.682108699228       -0.691288899730
 H         -0.193154241440        2.030281512420       -3.114379228583
 H          0.012131166689       -2.214629347755       -3.779378848018
 H          0.181619902469       -2.600826526220       -1.304124674465
 C          0.083645903894        1.795834982230        3.013442097908
 C          0.100477910892        0.022980768336        1.762290618846
 C         -0.094407502802       -0.482425539643        3.140509272872
 C          0.110175547157       -0.788763142831        0.612733527993
 C          0.181154976660       -0.500799825321       -0.765336157337
 C          0.016093544218        0.823816795160       -1.356291690502
 C         -0.118640819689        1.034130234329       -2.718455850549
 C         -0.120842892703       -0.087535761848       -3.631765852519
 C          0.067651020434       -1.419665662218       -3.048192990062
 C          0.167261708421       -1.596688235016       -1.721883086634
 O         -0.302575115707       -1.627883130399        3.593349922799
 O         -0.205803383587        0.128081505648       -4.840531462943
