21
Frame 4
 N         -0.061712751343        0.663333108273        3.917289493549
 N          0.115497383380        1.449671320408        1.824462012686
 H         -0.250567573162        0.653130845024        4.898157113415
 H          0.203934628702        2.780732712401        3.431289206408
 H         -0.047224445966       -1.824203581584        0.779285760957
 H          0.075546392068        1.742435766969       -0.734102877097
 H         -0.161977680497        2.040613520742       -3.181321464780
 H          0.199587596406       -2.266392115648       -3.646363506078
 H          0.132766930879       -2.532065148384       -1.252296953803
 C          0.106219195365        1.768108933579        3.088030588099
 C          0.062248914223        0.037859661840        1.756539910363
 C         -0.017234038631       -0.535897653487        3.146424893241
 C         -0.013328049863       -0.733106411669        0.609735965748
 C          0.006963635413       -0.457382456607       -0.763517176535
 C         -0.044420566634        0.868834642718       -1.407362641137
 C         -0.011056341308        1.060423685595       -2.780929157746
 C         -0.064353307384       -0.115213477587       -3.691479621723
 C         -0.019447526167       -1.416995088834       -3.009223831516
 C          0.075090558677       -1.549808282884       -1.637390088409
 O         -0.146496891991       -1.662201456163        3.594131688396
 O         -0.140036062167        0.028121475299       -4.941359314039
