21
Frame 4
 N         -0.110494427768        0.704822968431        3.875443923080
 N          0.039052545167        1.378343402092        1.752327173493
 H         -0.045328957269        0.681830288230        4.862336153177
 H          0.081723124530        2.785316042123        3.256601255438
 H          0.104608298756       -1.888010170818        0.876352920758
 H          0.056556378080        1.685251289695       -0.662697912368
 H          0.052214423647        1.990290681854       -3.124943372704
 H          0.003333980691       -2.210286063379       -3.740990779675
 H          0.184201561054       -2.589051563270       -1.281482496323
 C          0.058095425602        1.782684304245        2.957098160667
 C          0.025650873423       -0.005436096652        1.747344157530
 C         -0.101544414169       -0.454985966883        3.148031571697
 C          0.036577036364       -0.816511044254        0.639949949299
 C          0.011608218107       -0.492655302909       -0.741800200910
 C          0.005806870269        0.824631749495       -1.316840243115
 C         -0.026505180725        1.028192902693       -2.666529641527
 C         -0.044683889008       -0.049793515759       -3.629465140334
 C          0.047923015199       -1.361768802951       -3.059085260373
 C          0.084087446050       -1.562486364049       -1.671380865636
 O         -0.207195052081       -1.603261998255        3.654452607713
 O         -0.255687275920        0.172883260320       -4.874721959885
