21
Frame 4
 N         -0.106928446214        0.660510212304        3.865133348311
 N         -0.091657123454        1.439073965519        1.741673919736
 H         -0.190075477333        0.658461794050        4.865798362521
 H         -0.262357187065        2.801119022518        3.299924466766
 H          0.198610247616       -1.815232624492        0.890186750694
 H          0.373601581511        1.622056136505       -0.594914686581
 H          0.149343005146        1.988935382850       -3.156293502002
 H         -0.426640650186       -2.172073959468       -3.669103456760
 H          0.084875252258       -2.583746801251       -1.252644309991
 C         -0.156203567629        1.750461661932        2.995026549735
 C         -0.002861199129        0.043226655168        1.708276458307
 C         -0.009057419308       -0.486932799230        3.056416303486
 C          0.250985943039       -0.765339056068        0.610054274127
 C          0.332501061251       -0.500161104551       -0.756668468032
 C          0.309000458927        0.786885966118       -1.352382186953
 C          0.101996310635        1.039716360881       -2.681915806500
 C         -0.138435749293       -0.061676095643       -3.621511737134
 C         -0.119182872881       -1.359131409221       -3.019242862314
 C          0.171709049649       -1.592731106595       -1.707245369898
 O         -0.055018954115       -1.593415066403        3.613134054597
 O         -0.414204263425        0.139992865077       -4.833702102116
