21
Frame 4
 N          0.040996147577        0.714128487458        3.863060718575
 N         -0.155021901929        1.418228175851        1.752803488413
 H         -0.100883542624        0.793276315207        4.850381460839
 H         -0.102520028541        2.874978142960        3.313686165844
 H          0.060447594163       -1.854449989623        0.955348174428
 H          0.175476462937        1.645500625828       -0.588101921083
 H          0.105366125743        2.014224392084       -3.071435419720
 H         -0.174641931468       -2.168025546714       -3.759264782024
 H          0.070370053114       -2.656782861662       -1.408174059923
 C         -0.134562607922        1.810907950979        3.001196947410
 C         -0.026707717591        0.019626513210        1.755975403601
 C         -0.023677253579       -0.486736110191        3.094500020868
 C          0.070835501410       -0.837157953570        0.595728822201
 C          0.140158585165       -0.553365259289       -0.762056078506
 C          0.180543931866        0.785377986815       -1.297294392412
 C          0.172628112319        1.024078416172       -2.663900944261
 C         -0.021198918812       -0.065155802849       -3.605284882238
 C         -0.064209584214       -1.366803621573       -3.075984958696
 C          0.085317833404       -1.611745661578       -1.722844538156
 O          0.020965873305       -1.659803929613        3.577609878192
 O         -0.319682734324        0.159699730098       -4.805949103352
