21
Frame 4
 N          0.014865645157        0.742340348215        3.839595650697
 N          0.037445232496        1.393443890718        1.693947676811
 H          0.084241072994        0.866999521390        4.849975878540
 H         -0.142476338498        2.827322603649        3.319434011720
 H          0.173739052580       -1.842761137256        0.882926217120
 H          0.151827071536        1.596064306482       -0.598599223092
 H         -0.055106189716        2.036416284502       -2.966731600091
 H         -0.021197353974       -2.142290746647       -3.840960228079
 H          0.033165678139       -2.668283473431       -1.367967001792
 C          0.011541952348        1.785354777576        2.961109491908
 C         -0.006267241758       -0.027821023733        1.748327364326
 C         -0.019241964194       -0.498155306934        3.113019109358
 C          0.037567927258       -0.837510568289        0.588014934980
 C          0.062898568971       -0.593831318694       -0.759895599635
 C          0.082943149587        0.761387903802       -1.271585441529
 C         -0.066275175583        1.024304568768       -2.599343434854
 C         -0.058485116152       -0.021517603574       -3.631965581135
 C         -0.036378442391       -1.369716671870       -3.100109580319
 C          0.073793296804       -1.655520966875       -1.754674815487
 O         -0.302467684828       -1.569960731787        3.765744191787
 O         -0.056133140775        0.193735343988       -4.870262021233
