21
Frame 4
 N         -0.067275267072        0.766203495883        3.848235919268
 N         -0.159103877921        1.353996247475        1.668309798469
 H          0.043200317705        0.950368797784        4.836744156987
 H         -0.129565972299        2.859494630716        3.204477538460
 H          0.105922446745       -1.913996614560        0.896319062042
 H          0.359547868483        1.532618690523       -0.514685638711
 H          0.012588098417        2.035778115019       -2.965066443941
 H         -0.093120235786       -2.144751427136       -3.841810228459
 H          0.037724615583       -2.633601182757       -1.367181026781
 C         -0.170374750871        1.815785701249        2.880998704202
 C         -0.000256196709       -0.024118082727        1.783064853978
 C         -0.052684391302       -0.526813752327        3.143701336772
 C          0.072496728001       -0.866595406500        0.660578312845
 C          0.084527112827       -0.564997734308       -0.724252111074
 C          0.227121633100        0.711691735114       -1.289512580622
 C          0.062141938857        1.023801228571       -2.590988184269
 C         -0.089035068684       -0.006932767493       -3.613688592036
 C         -0.083130217804       -1.391078698947       -3.086770929171
 C          0.008909601111       -1.619755541076       -1.724048980978
 O          0.018587516231       -1.647842410359        3.606891964705
 O         -0.188221898612        0.290744975856       -4.811316931686
