21
Frame 4
 N         -0.279610562422        0.730239973748        3.908278407840
 N          0.054789761462        1.493282521378        1.751337399871
 H         -0.061719304953        0.779914393697        4.898754887811
 H         -0.043651758424        2.827751960157        3.399718467862
 H          0.080649374172       -1.842688815916        0.939039219820
 H          0.227145811682        1.542970366963       -0.551865000936
 H         -0.026735467161        2.007934783951       -2.932814980475
 H         -0.023649824181       -2.239080855365       -3.845246390716
 H         -0.037710426844       -2.619975906784       -1.413626803482
 C         -0.063883830855        1.792906252771        3.020002346491
 C          0.096773090623        0.090039351079        1.727274789803
 C         -0.022702014885       -0.404361849697        3.103041127993
 C          0.176313956028       -0.800892461261        0.624490542287
 C         -0.028541731393       -0.572120386336       -0.782583542121
 C          0.128685874283        0.737970185417       -1.288837857650
 C          0.025018480609        0.979801198325       -2.626506194808
 C         -0.088348717133       -0.058309706657       -3.660076909897
 C         -0.039573601106       -1.420183967027       -3.129570006640
 C          0.035755091860       -1.622077531972       -1.762705156346
 O          0.033397859432       -1.579889079096        3.516558214770
 O         -0.142402060795        0.176769572626       -4.894662561476
