21
Frame 4
 N         -0.000262063195        0.667705988253        3.936447261801
 N          0.033929995752        1.427573444359        1.776297514658
 H         -0.282998794393        0.646746623787        4.926561991432
 H         -0.126543662006        2.852901260049        3.267930748082
 H          0.285492083851       -1.876310822422        0.855096299647
 H          0.135477770431        1.706489975489       -0.689819077764
 H          0.128762614714        2.031632627903       -3.118137021132
 H         -0.262474601663       -2.214992692086       -3.661059024491
 H          0.145650508106       -2.626843137327       -1.290002298275
 C         -0.110476475472        1.762966908784        3.034787973623
 C          0.174893506317        0.047221763874        1.739663084949
 C         -0.017728127916       -0.485849596243        3.120466378429
 C          0.241961794140       -0.788927149065        0.627368157539
 C          0.214491562660       -0.469966445812       -0.752630953693
 C          0.192674369003        0.868754701133       -1.377436393292
 C          0.037265355990        1.019007744584       -2.725275389706
 C         -0.093056027138       -0.087103837733       -3.663587704525
 C         -0.141148833943       -1.385919634220       -2.996052437877
 C          0.063215152779       -1.596631933549       -1.670717913962
 O         -0.276358803840       -1.636663900077        3.543992015057
 O         -0.342767324178        0.138208110318       -4.883893210499
