21
Frame 4
 N         -0.016509329940        0.705684194967        3.826415447269
 N         -0.019650980420        1.437457613399        1.689294409783
 H          0.066030229397        0.680812999187        4.816523487503
 H          0.077856842406        2.750374226498        3.303119988648
 H          0.136779115582       -1.825350716609        0.899935312344
 H         -0.171155044322        1.690864755660       -0.702960685917
 H         -0.175645187209        2.033725925600       -2.962256451557
 H         -0.165958934206       -2.294407182704       -3.652466983243
 H         -0.100758760984       -2.542233071409       -1.244170216885
 C         -0.056487507988        1.758976691576        2.963462445096
 C          0.005635204493        0.050288015627        1.726018023774
 C         -0.090637213213       -0.493438825479        3.076449176729
 C          0.082405210044       -0.752247924099        0.628403765063
 C          0.203865914662       -0.502074620423       -0.733412540912
 C          0.040794738322        0.820348339593       -1.271142991523
 C          0.037037432052        1.023759378133       -2.640000597726
 C          0.097658606631       -0.062011088756       -3.635237944034
 C          0.014792418367       -1.380595139424       -3.063336515875
 C          0.099630810028       -1.552111609950       -1.694598661219
 O         -0.160118388171       -1.668092465087        3.543170892599
 O          0.094434824469        0.120270503700       -4.873209359916
