21
Frame 4
 N          0.125771230836        0.715425551026        3.801187277149
 N         -0.211080681908        1.502506536417        1.748488414208
 H          0.308731844019        0.748847038262        4.785232071068
 H         -0.006735671888        2.847249580970        3.371938200689
 H         -0.119710772025       -1.881918385865        0.894894986475
 H         -0.018741732948        1.581483408733       -0.544788689380
 H          0.035601323737        2.014637149453       -3.010136863453
 H          0.098030148357       -2.215987584730       -3.775573216813
 H         -0.044870653366       -2.648345690917       -1.373400452576
 C         -0.034876192721        1.840643096882        2.992168710098
 C         -0.143107306317        0.048513319347        1.707181184602
 C         -0.025795980040       -0.479421519360        3.065702400842
 C         -0.163563908492       -0.831810868353        0.625309363705
 C         -0.019851869600       -0.561908901107       -0.754361677549
 C         -0.027811260716        0.809936608975       -1.294121352090
 C         -0.009937850057        1.022594475264       -2.643547287472
 C          0.059902214947       -0.046383684365       -3.611494635282
 C          0.122855990226       -1.393057412563       -3.058599077927
 C          0.098455555913       -1.633663659623       -1.708802142620
 O         -0.033884255791       -1.620899480592        3.589466819557
 O          0.010619827835        0.181560422147       -4.806744033231
