21
Frame 4
 N         -0.034848544713        0.740952316116        3.876738632072
 N          0.056123297325        1.375522359612        1.736261046658
 H          0.109292405363        0.726886077884        4.877008634730
 H          0.058314184187        2.876255956774        3.209755314687
 H         -0.008740394340       -1.952522442651        0.873489468343
 H         -0.069092779475        1.562377084583       -0.573923823984
 H         -0.055851644976        2.047779505253       -3.062807894671
 H          0.233012268704       -2.140108015851       -3.773793136451
 H          0.018708881455       -2.651218411790       -1.387823935331
 C          0.154503409592        1.799002557801        2.982062328602
 C         -0.100069057537       -0.020091423242        1.736852649464
 C         -0.091171304881       -0.425796575083        3.141647058834
 C         -0.084960637239       -0.858542617987        0.624837822771
 C         -0.048631348921       -0.539555600409       -0.777627213469
 C         -0.030443839047        0.775956783786       -1.319329022956
 C         -0.014433092965        1.033962855709       -2.636923725705
 C          0.025869578520       -0.020560119908       -3.638754454351
 C          0.121111553175       -1.352700826052       -3.018107504378
 C         -0.009790313992       -1.597378695923       -1.702186626166
 O         -0.126994459675       -1.565539705546        3.708194693474
 O         -0.101908160559        0.185318936923       -4.875570312171
