21
Frame 4
 N          0.051074785550        0.782959262063        3.756646999908
 N         -0.116074059293        1.351484254894        1.619411803027
 H         -0.144427925543        0.908386865901        4.712234820972
 H         -0.225072729979        2.862778843418        3.165962967774
 H          0.003352526904       -2.059221617196        0.971627183467
 H          0.297264277283        1.552692582471       -0.511387327135
 H          0.159997406612        2.071797288883       -2.955374855950
 H         -0.173350989682       -2.052457699616       -3.778327968487
 H          0.012279698386       -2.746516959851       -1.517713879634
 C         -0.107056775225        1.802953361920        2.845697434192
 C          0.012950509904       -0.079113680333        1.721446782284
 C          0.036105223303       -0.435535798454        3.127331913723
 C          0.054282122317       -0.974990456658        0.664188874157
 C          0.108229575434       -0.645767361762       -0.704918360961
 C          0.116510324149        0.739711309167       -1.203931177435
 C          0.089864885949        1.067223848522       -2.578818023675
 C         -0.082322066958        0.065553680566       -3.532889988599
 C         -0.050179884151       -1.316848017091       -3.052878543898
 C          0.079826558855       -1.673134599553       -1.713611817902
 O          0.108205566928       -1.503605425681        3.726396022283
 O         -0.231459030743        0.281650318388       -4.761092858108
