21
Frame 4
 N          0.135661203423        0.681374321107        3.897082801912
 N          0.042466802334        1.508087120954        1.784684770244
 H         -0.197937368815        0.654521443114        4.864512214846
 H          0.272787457004        2.725932525041        3.528208454931
 H         -0.069945428655       -1.743058319704        0.863869467541
 H         -0.135778484677        1.708306841068       -0.694623383141
 H         -0.180450382914        2.024621715145       -3.017100894952
 H          0.176693841204       -2.299151561434       -3.763643049748
 H          0.097271111612       -2.639351182372       -1.313800019916
 C          0.077579305274        1.788141711175        3.066342212890
 C          0.022930660299        0.108634250008        1.713049564758
 C         -0.040591348628       -0.462284042066        3.087654537488
 C         -0.031705506768       -0.713556764522        0.586184733451
 C          0.019182836866       -0.487858950449       -0.798657538290
 C         -0.008980353211        0.830120495356       -1.349048624852
 C         -0.053895446709        0.994479768015       -2.691240836050
 C         -0.033719137595       -0.082841963685       -3.651503841717
 C          0.083974602289       -1.458586730446       -3.062863104140
 C          0.077262483351       -1.608866904757       -1.717016075456
 O         -0.225426698985       -1.587607590547        3.547364513286
 O         -0.027380146699        0.058943819001       -4.879455903083
