21
Frame 4
 N          0.005229929342        0.666663859113        3.887067184170
 N          0.097247080158        1.469596607746        1.751225354210
 H         -0.037220506515        0.663872552838        4.891753937811
 H          0.111915370320        2.779111901148        3.458308116532
 H         -0.033455033333       -1.757078793486        0.855205668687
 H         -0.004562362197        1.650747124185       -0.637892346753
 H         -0.106395004107        2.036638218770       -3.104452200286
 H          0.170909047742       -2.217944796254       -3.726698489139
 H          0.157692392494       -2.599050776292       -1.324650547334
 C          0.164110168244        1.764985374689        3.052387039382
 C          0.001332258596        0.096777569637        1.737385835875
 C         -0.136246910617       -0.497092040707        3.092231722500
 C          0.030727255805       -0.716474718876        0.646254413226
 C          0.036182501190       -0.467293479750       -0.773488034200
 C         -0.051804526665        0.841148606688       -1.367789133615
 C         -0.069502648300        1.027770064978       -2.718767243154
 C         -0.054194141971       -0.110392789690       -3.634281491510
 C          0.053816950865       -1.436322997393       -3.040657131063
 C          0.106172248240       -1.586913066664       -1.674963377225
 O         -0.292796538432       -1.632296338595        3.539878788918
 O         -0.149157530860        0.023547917914       -4.908058067033
