21
Frame 4
 N         -0.018622750790        0.593181707306        3.990556796044
 N          0.035592118120        1.543499902822        1.875933984035
 H          0.067569726647        0.578561286944        4.970086110071
 H          0.120386785658        2.729172347020        3.630255590238
 H         -0.047984940633       -1.699862552160        0.903929168784
 H          0.019145209432        1.802482718427       -0.820246427424
 H         -0.047316975151        2.011708786994       -3.146906041936
 H          0.212968433914       -2.343008410783       -3.614347824965
 H          0.088727033879       -2.503988608926       -1.219187259258
 C          0.086019505036        1.772705053747        3.162263036489
 C         -0.166717695899        0.133828401226        1.728427105550
 C         -0.062145041656       -0.487293278933        3.080060089893
 C         -0.126143246602       -0.657798778817        0.551506550017
 C          0.001601442618       -0.405101409008       -0.806584803005
 C          0.049137587330        0.865485453750       -1.453949366490
 C         -0.068271290314        0.985976565898       -2.817134026711
 C         -0.057315326989       -0.139435453916       -3.732044829634
 C          0.137250528462       -1.435674243617       -3.036444073164
 C          0.061279061061       -1.516933623756       -1.682626636346
 O         -0.124726781653       -1.713164210246        3.369870268701
 O         -0.160433382471       -0.114341653971       -4.933417410888
