21
Frame 4
 N         -0.077079302796        0.699812163897        3.875154106880
 N         -0.027843641878        1.473100339585        1.748841496201
 H          0.051378481644        0.640728832473        4.872200643524
 H         -0.222910086796        2.821606693570        3.376366414064
 H          0.159014022350       -1.882591960100        0.821170192848
 H          0.255707469806        1.667423312751       -0.601763630473
 H          0.125865966344        2.004872960857       -3.153584747026
 H         -0.139232557557       -2.177136151236       -3.763492725248
 H          0.038840441303       -2.594039661822       -1.186631186532
 C         -0.059537716572        1.791583314136        3.023543138868
 C         -0.007689915818        0.054207339865        1.702771794193
 C         -0.087077277864       -0.466962270061        3.071792490054
 C          0.125597851816       -0.812399408338        0.597050211158
 C          0.172769885632       -0.498319679501       -0.758079031786
 C          0.094074420664        0.818694057987       -1.321387314527
 C          0.031631454372        1.009812468913       -2.704288592178
 C         -0.083778866745       -0.040646873568       -3.642988802524
 C         -0.039877483778       -1.376027711597       -3.010520388896
 C          0.053511459328       -1.619938738426       -1.631515652216
 O         -0.105195739892       -1.612875221653        3.531506717646
 O         -0.258168863562        0.099096192267       -4.846145134032
