21
Frame 4
 N         -0.040128894354        0.702666013122        3.851626703912
 N          0.196965303009        1.496483551698        1.753848573402
 H         -0.281253431350        0.796144718614        4.848391213479
 H          0.175692870454        2.760038993360        3.502871123388
 H          0.104294279900       -1.809747698619        0.923505812607
 H          0.020707382372        1.659900143077       -0.599053788444
 H         -0.144957262457        2.042999724956       -3.040863237745
 H          0.041946585501       -2.319431568874       -3.724708638063
 H          0.201670287203       -2.652112736861       -1.306422938255
 C          0.155162505046        1.790292810062        3.032221839682
 C          0.018665583762        0.108802767685        1.698884884121
 C         -0.074291529913       -0.513991019581        3.013907307921
 C          0.039560788021       -0.745375472736        0.613366257918
 C         -0.018236143555       -0.479699328375       -0.759460327381
 C         -0.004355496928        0.828493797977       -1.304605954434
 C         -0.078579940068        1.000499623192       -2.659893647942
 C         -0.113184940564       -0.117732923539       -3.656755389898
 C          0.093249723248       -1.429612816584       -3.049907020652
 C          0.034898943426       -1.608054553176       -1.676659439160
 O         -0.237927493235       -1.675495163580        3.405432404447
 O         -0.089899119520        0.164931138181       -4.865725738903
