21
Frame 4
 N          0.081349566315        0.666040935981        3.873859765218
 N          0.000666603594        1.483868416564        1.745957104427
 H          0.153123006294        0.604519242122        4.877454491620
 H          0.079682445651        2.753212283644        3.442795477660
 H          0.071014804911       -1.792522634414        0.941750817876
 H         -0.131169694927        1.696844982706       -0.736479539211
 H          0.013826831941        2.019062333366       -3.060345047152
 H          0.097406347652       -2.270111472893       -3.737845719789
 H          0.125197371372       -2.623148194146       -1.333071883267
 C          0.096968322364        1.773399987907        3.013370288134
 C         -0.063350693351        0.081959397309        1.685584725061
 C         -0.130532757773       -0.428214879999        3.062908676433
 C         -0.018403436087       -0.777034560980        0.619037267999
 C         -0.035900893026       -0.509333203523       -0.749595076925
 C         -0.157375237451        0.812462554780       -1.305077780683
 C         -0.149106450970        1.008861322759       -2.666100216893
 C          0.027257880248       -0.073027024345       -3.614723669864
 C          0.047893896618       -1.395963896872       -3.046561647593
 C         -0.073941779222       -1.615057603239       -1.707759163036
 O         -0.195514294077       -1.531974002596        3.547453166253
 O          0.160908159926        0.116156015870       -4.852612036268
