21
Frame 4
 N          0.045744014277        0.661333122691        3.889799939627
 N         -0.007412404796        1.457999038753        1.783677088753
 H         -0.016676414927        0.610276500843        4.919900843954
 H          0.051724767395        2.805796141085        3.464499646007
 H         -0.183913117275       -1.765916517594        0.875164836000
 H         -0.050185465682        1.705405225294       -0.741023793138
 H         -0.052189177671        2.030153367302       -3.130586374814
 H          0.163640278744       -2.261100944639       -3.603729645625
 H         -0.009627225915       -2.537046034698       -1.237873766480
 C          0.090748133682        1.788981316560        3.035755037755
 C         -0.073366481105        0.072401395712        1.788681402926
 C          0.022053216504       -0.510598038071        3.097102903845
 C         -0.095435572694       -0.720244888373        0.635992994443
 C         -0.110287482910       -0.462672160629       -0.737062574524
 C         -0.091208478012        0.832983456850       -1.402225349321
 C         -0.019270116204        1.004401569999       -2.750815862466
 C          0.087430016587       -0.081395451175       -3.696833538573
 C          0.022623954925       -1.402062935724       -3.044612446124
 C          0.013608592867       -1.563834858778       -1.682641868715
 O          0.125040420541       -1.705363164878        3.495199785067
 O          0.086958541668        0.040503859469       -4.958369258597
