21
Frame 4
 N         -0.108197573657        0.648487583836        3.910358093754
 N          0.193333853156        1.545455451733        1.876761908395
 H         -0.404295381958        0.592996378292        4.864099028168
 H          0.015368590790        2.752314846409        3.731752160341
 H          0.052270491583       -1.757929715492        0.831465917077
 H          0.139911682307        1.648575792093       -0.757552412373
 H         -0.051452561847        2.018682022055       -3.149112888099
 H         -0.127778103341       -2.317485605618       -3.639756908694
 H          0.028241708584       -2.558114370066       -1.160260347191
 C         -0.032326191425        1.810487877046        3.128497645848
 C          0.174149983778        0.145373323864        1.698059667830
 C          0.037103358841       -0.432843214304        3.030257036706
 C          0.124358267849       -0.717478158102        0.562624532219
 C          0.101029792730       -0.475744487332       -0.799268893288
 C          0.046437246868        0.788632587261       -1.417937578238
 C         -0.020209610489        0.997082640981       -2.767547210320
 C         -0.046520278226       -0.102063501876       -3.684240926655
 C         -0.003328055468       -1.432086102279       -3.066350150166
 C          0.092768311391       -1.611180951748       -1.709591627509
 O         -0.023811618823       -1.603653243571        3.436015666847
 O         -0.187053912644        0.060490846818       -4.918272714650
