21
Frame 4
 N         -0.120784018238        0.714003540889        3.834948589631
 N          0.055322972454        1.519364560369        1.750278141051
 H         -0.353484034601        0.689056005146        4.841828386067
 H         -0.042554904280        2.806297642904        3.364042771800
 H          0.139388719661       -1.777341773714        0.902222509817
 H          0.312163453078        1.539577594694       -0.518810063748
 H          0.023864315182        2.035394608722       -3.071202108158
 H         -0.213673007445       -2.239645708938       -3.749652567087
 H          0.211165865639       -2.637156437037       -1.288570005480
 C         -0.040814654315        1.804350104515        3.007629920465
 C          0.074306188549        0.085553289487        1.705512550909
 C         -0.077188304994       -0.457379824791        3.039624157338
 C          0.199738801735       -0.747645443988        0.611863899112
 C          0.225681210868       -0.584373414655       -0.762378691872
 C          0.167751953637        0.779393763190       -1.319220083845
 C          0.008302495684        1.023091158599       -2.652628947313
 C         -0.132067751561       -0.055283908420       -3.622399637473
 C         -0.149078597435       -1.442133351535       -3.042309121834
 C          0.064886594615       -1.659995702660       -1.669106433352
 O         -0.054164803966       -1.632486235927        3.492023302403
 O         -0.298762494269        0.237359533148       -4.853696568431
