21
Frame 4
 N          0.001709096359        0.763211150047        3.858057183205
 N         -0.016649038431        1.308306777319        1.692811588430
 H         -0.072438074091        0.786120976047        4.870024150645
 H          0.107041781408        2.847948724246        3.201109566673
 H          0.007438260552       -1.886431796190        0.854961369475
 H          0.113905232366        1.577865574214       -0.553764625850
 H         -0.048627814904        2.076173357018       -3.028570547055
 H          0.003069322950       -2.171950109545       -3.816808402446
 H          0.174437830908       -2.627219888512       -1.326579717969
 C         -0.000750010376        1.769846235953        2.916941760584
 C         -0.130795838621       -0.070877145857        1.766941399618
 C         -0.065409041099       -0.483945391271        3.186245041208
 C         -0.014973726232       -0.847308555600        0.634929138814
 C          0.038947346236       -0.506430306513       -0.753512946444
 C          0.066763436394        0.807457098089       -1.312167086525
 C         -0.002822456877        1.032705895137       -2.688568466259
 C         -0.091521902693       -0.048874961871       -3.644322753602
 C          0.036361644005       -1.377657621432       -3.048669156734
 C          0.005571281136       -1.595638314595       -1.687180527222
 O         -0.039614790316       -1.579428809870        3.744865839411
 O         -0.071642538675        0.226127113185       -4.866742807957
