21
Frame 4
 N         -0.023217416421        0.613765600408        3.910534077702
 N          0.124899682051        1.526038505025        1.830479039789
 H         -0.182962840941        0.554715457079        4.917227006851
 H          0.066172065860        2.780905147798        3.535309972931
 H         -0.062298424665       -1.778282796253        0.970460218631
 H         -0.151922995447        1.725289884473       -0.734527261924
 H          0.110204920354        1.970766285391       -3.227079229927
 H          0.126713909613       -2.232267189448       -3.709833317281
 H          0.025849941060       -2.529516016780       -1.216241551745
 C          0.043802882989        1.807612856640        3.123338574374
 C          0.082358041696        0.112748247941        1.760481317436
 C         -0.028549519571       -0.501115078411        3.042568184167
 C         -0.022246236773       -0.664340267931        0.623333614766
 C         -0.041983122794       -0.428542441203       -0.790785044188
 C         -0.072487930844        0.866899257939       -1.408044334647
 C          0.043648495136        1.007209924042       -2.774121182697
 C         -0.004013570499       -0.130415387535       -3.659434101859
 C          0.016220267709       -1.422293519710       -3.024479165529
 C          0.001905733751       -1.547473355485       -1.655421591609
 O          0.077829937817       -1.693969476450        3.405170889667
 O         -0.129923820082       -0.037735637531       -4.918936114906
