21
Frame 4
 N          0.084556045464        0.699612685185        3.922384889933
 N         -0.159918544266        1.466663949059        1.789121729021
 H          0.301718598868        0.607869307452        4.879313080961
 H          0.072995063772        2.803933854969        3.391960992416
 H         -0.109145544109       -1.787866877565        0.965782742647
 H         -0.018563263057        1.661132117925       -0.620236009352
 H         -0.003871121972        1.979452371824       -3.161165158620
 H          0.222764029647       -2.198339019364       -3.767443437732
 H          0.064787421058       -2.529591462896       -1.218902718709
 C         -0.005654579994        1.789827894776        3.036634851312
 C         -0.166723425834        0.070082332371        1.701442403727
 C         -0.068987172509       -0.462371381690        3.064076470421
 C         -0.076209382584       -0.773438117056        0.589032314936
 C         -0.103615386794       -0.521048225157       -0.772151213252
 C         -0.107714249749        0.835381898262       -1.314589122175
 C          0.027805976539        1.005064258896       -2.677699257378
 C          0.012800210888       -0.089446411774       -3.662536784278
 C          0.078995373583       -1.405747577189       -3.051859005810
 C         -0.087155966223       -1.580571628316       -1.685813394638
 O         -0.037335574440       -1.646809487532        3.495696606534
 O          0.078471491713        0.076209517822       -4.903049979963
