21
Frame 4
 N         -0.016552478806        0.679227820717        3.958881031745
 N         -0.205238878533        1.496951004214        1.832547126574
 H          0.379030744600        0.697754631346        4.882667241617
 H         -0.185879267845        2.731170319522        3.575930994575
 H         -0.014600622408       -1.755587674420        0.800561709673
 H          0.029483802909        1.756930930609       -0.795132467080
 H          0.125909972583        2.063532920848       -3.085822204385
 H         -0.011177941484       -2.330459529594       -3.647363469255
 H         -0.126026144426       -2.696668717869       -1.335057041990
 C         -0.119326924685        1.759019969363        3.076024030836
 C         -0.113560027029        0.077019470041        1.760615427874
 C          0.074715907098       -0.492684971627        3.102376224115
 C         -0.075789831595       -0.718009182053        0.603644695902
 C         -0.098562499977       -0.442876994238       -0.805116530601
 C         -0.058067234464        0.841435137383       -1.399336007888
 C         -0.027186443063        1.017391258139       -2.760724946385
 C          0.107130464440       -0.094965440253       -3.661897915962
 C         -0.098753231003       -1.403347974588       -3.053938751543
 C         -0.118151166295       -1.586328118274       -1.691271263846
 O          0.220310678910       -1.629671299705        3.540054723025
 O          0.332291121074        0.030166440443       -4.897642607001
