21
Frame 4
 N          0.199858161331        0.719412319612        3.880147357215
 N          0.032131129554        1.480839759349        1.735035643275
 H         -0.144571491193        0.689426819590        4.845549790279
 H         -0.198712229952        2.764816095052        3.419356305438
 H          0.092075345870       -1.818684656441        0.889661393919
 H         -0.031491673710        1.635799833586       -0.618853172122
 H          0.117586704410        1.991847321327       -3.132563117739
 H          0.038979408617       -2.302705884657       -3.684401910520
 H         -0.175055787055       -2.584963337609       -1.274699321407
 C         -0.033693484942        1.783401335581        2.995924061151
 C          0.065900810893        0.080019032657        1.738127041339
 C          0.097067908843       -0.473884950590        3.076538170078
 C          0.030728828173       -0.772282966654        0.628676278994
 C         -0.061363839048       -0.510479984305       -0.740671293454
 C         -0.046483116912        0.807816243174       -1.304237108296
 C         -0.037638838842        1.005110669872       -2.666667562874
 C          0.017938206348       -0.083484015333       -3.650673213296
 C         -0.095430563643       -1.415260535245       -3.047134185794
 C         -0.074001725352       -1.593848329474       -1.691383074092
 O          0.067074095802       -1.644402918487        3.498077210137
 O          0.139102150809        0.241508148995       -4.895809292229
