21
Frame 4
 N          0.054192077305        0.777680553758        3.934886397908
 N          0.092700825031        1.426665024093        1.760388515323
 H         -0.363590290414        0.797088103057        4.850569418498
 H          0.210152196362        2.804500598984        3.379739907220
 H          0.089438743147       -1.932037761624        0.912240425725
 H         -0.127877438941        1.636871793954       -0.630561853161
 H         -0.033362497289        2.028057805687       -3.073512365614
 H          0.028510431723       -2.188121026462       -3.852193107430
 H          0.098846486190       -2.639120347515       -1.368220639062
 C          0.038540956422        1.787557745871        3.013768631220
 C          0.055278027323        0.007776023420        1.765268514828
 C         -0.045646212842       -0.469175838045        3.142091436630
 C          0.105448610986       -0.865202305194        0.629169837947
 C          0.045414893008       -0.538822991823       -0.746976905496
 C          0.028246859499        0.785605116642       -1.316221227302
 C          0.009174208378        1.043952192551       -2.669728181648
 C         -0.006904181711       -0.048658703000       -3.660362515573
 C         -0.032290662373       -1.427465543670       -3.102147479528
 C          0.047990387173       -1.638873475356       -1.728347529168
 O         -0.135094645203       -1.548467326774        3.640608466146
 O         -0.159168773774        0.200190361448       -4.880459747462
