21
Frame 4
 N          0.035411606886        0.675110272650        3.890259763841
 N         -0.091638940391        1.450205302222        1.782570368472
 H          0.161194887068        0.609120163878        4.892811505515
 H         -0.367776885837        2.765068956766        3.410376169972
 H         -0.034037077132       -1.795917045137        0.955191588434
 H          0.092876213562        1.689963106868       -0.735677565398
 H          0.184172867741        2.022596085070       -3.125090930211
 H         -0.163095890137       -2.245256682794       -3.749286919851
 H         -0.212860460940       -2.637973576207       -1.284641934023
 C         -0.201235763465        1.762732140741        3.035594220934
 C         -0.016820528407        0.088789683266        1.766625133873
 C          0.198079765053       -0.471712952389        3.065883033306
 C         -0.052212967100       -0.755112216471        0.652642076161
 C         -0.097641944097       -0.436972595266       -0.768828725327
 C         -0.005399173752        0.829719302277       -1.384182863371
 C          0.054817313384        1.031439007877       -2.721334254568
 C          0.085449775614       -0.051132220771       -3.633979562617
 C         -0.023651622898       -1.401414285928       -3.017940611989
 C         -0.175839679398       -1.604106230824       -1.667207621049
 O          0.367583611171       -1.596281071395        3.512085802037
 O          0.262624893078        0.071134855568       -4.875868674140
