21
Frame 4
 N          0.052612584679        0.711588977042        3.859477938095
 N         -0.052775254559        1.462606159026        1.741349163561
 H          0.054671297392        0.729012118849        4.871113060915
 H          0.109417677664        2.831526336947        3.307293872416
 H          0.065679996791       -1.882473514033        0.885772666632
 H         -0.155243415166        1.661898739316       -0.599708396131
 H         -0.134478233974        2.025800435881       -3.089299239411
 H          0.072292390145       -2.193270389362       -3.765688303812
 H         -0.074261752184       -2.624263656141       -1.354140158961
 C          0.035610780318        1.806064672219        2.965306529810
 C         -0.015471113632        0.007377717044        1.701363710081
 C          0.048785602991       -0.459823262045        3.082422004588
 C         -0.042303539032       -0.791806706106        0.595547925024
 C         -0.103419278102       -0.540124679837       -0.760750706983
 C         -0.100804579926        0.806088179923       -1.269924820698
 C         -0.138286722550        1.014517632709       -2.607583423241
 C          0.150157915013       -0.070971432743       -3.584423667195
 C         -0.020438992497       -1.414377119519       -3.022241582400
 C         -0.150881308513       -1.603478114182       -1.692033926066
 O         -0.004117579981       -1.631872088538        3.516354118947
 O          0.403253525122        0.155979993547       -4.780206765172
