21
Frame 4
 N          0.045620757443        0.690425571318        3.837075883616
 N         -0.194928765332        1.438952091475        1.759902269852
 H          0.215470125102        0.731330250444        4.812219788795
 H         -0.295177267130        2.813408593816        3.360278012656
 H         -0.024789475481       -1.864996288226        0.899750427458
 H          0.101876435457        1.614671276224       -0.615223737325
 H          0.250810253525        2.003367614339       -3.082545059209
 H         -0.105245930039       -2.214903686830       -3.784200191862
 H         -0.116532682848       -2.573757788073       -1.265528504797
 C         -0.172294472480        1.791802396178        3.014542680760
 C         -0.054282535323        0.021725215066        1.722774465148
 C          0.128503253538       -0.483678478049        3.069622925585
 C         -0.126238528119       -0.807830016123        0.622431235838
 C         -0.065960822790       -0.527471038613       -0.729069725905
 C          0.044428330762        0.789548545201       -1.287593095003
 C          0.084922212041        1.015900442201       -2.653048637697
 C          0.069921874547       -0.048386177354       -3.666463687046
 C          0.010523658373       -1.391410456744       -3.051728124093
 C         -0.086957666157       -1.581934592845       -1.683185870999
 O          0.264292708045       -1.591478770457        3.625472107080
 O          0.026038536868        0.174715297051       -4.905483162850
