21
Frame 4
 N          0.003426338340        0.585132582764        3.949018634008
 N          0.322006856798        1.525142365155        1.869777477823
 H         -0.395991359143        0.659789704629        4.874642180292
 H          0.066681986423        2.724913829823        3.653033098573
 H         -0.131597401078       -1.680961776240        0.948555754266
 H          0.044909841311        1.756933806988       -0.766779594379
 H         -0.174980925715        2.025445794465       -3.255403072193
 H          0.192535981761       -2.333842026843       -3.703844964380
 H          0.143502826066       -2.525958931298       -1.210710262942
 C          0.174972718078        1.749528750770        3.171459230757
 C          0.169706012505        0.100785773068        1.728326157336
 C         -0.081253249493       -0.488630700461        3.054169141899
 C          0.080926611286       -0.701650502898        0.584605518432
 C          0.088340099312       -0.441544360358       -0.810474850798
 C          0.077056943129        0.899687845474       -1.420270388721
 C         -0.062594143089        1.041764061120       -2.769625660592
 C         -0.126054060948       -0.111058068993       -3.648428968211
 C          0.064788433841       -1.465415743275       -3.025738413656
 C          0.091093846633       -1.563541919878       -1.680672792351
 O         -0.239889186068       -1.674723667030        3.343098793003
 O         -0.307588169949       -0.081796816982       -4.884737018167
