21
Frame 4
 N         -0.089990497899        0.659343196123        3.866995857998
 N         -0.083868585616        1.474234872552        1.789057570364
 H          0.081299662680        0.722075082324        4.860149451846
 H         -0.493824236414        2.729045373913        3.503161215723
 H          0.172847321470       -1.795613611027        0.895314882301
 H          0.033686840172        1.641154924565       -0.585512577562
 H          0.464203111362        1.876099568582       -3.190786952726
 H         -0.266176183810       -2.196598098974       -3.740745305533
 H         -0.314682544541       -2.623248936295       -1.344294341909
 C         -0.269838267313        1.753953325799        3.026716245051
 C          0.019415411026        0.078649441825        1.738194820640
 C          0.246401551027       -0.432122737020        3.052078458962
 C          0.050984420419       -0.758851224828        0.596563231913
 C         -0.158736805648       -0.492658181223       -0.754773925352
 C          0.031025437912        0.813815231719       -1.329962055829
 C          0.177075453017        1.009054956439       -2.666939909143
 C          0.034927567206       -0.088143009248       -3.638417583710
 C         -0.176739117737       -1.386410595914       -3.059240156646
 C         -0.196149634126       -1.585474560316       -1.687920434089
 O          0.546234567047       -1.539606119865        3.515211973755
 O          0.191904529767        0.141301100869       -4.844850466056
