21
Frame 4
 N         -0.005262031190        0.722859805074        3.883043129085
 N          0.048709839343        1.482759596642        1.765853194609
 H          0.068385874311        0.697723156811        4.905687699922
 H         -0.031322212925        2.795051276542        3.437024033558
 H          0.098599160923       -1.793175277685        0.980473519538
 H         -0.114978336321        1.577350249288       -0.566801698012
 H          0.075414165421        2.000630484795       -3.084406033479
 H         -0.104857853452       -2.236045288438       -3.823969648833
 H          0.248837188682       -2.642001346115       -1.367896652246
 C          0.064344028235        1.787439495908        3.013315721335
 C          0.041275822075        0.106827542975        1.742155405586
 C         -0.096359284126       -0.438805703126        3.074221520332
 C          0.016419889970       -0.772113967378        0.632487210140
 C         -0.014077960865       -0.528879955982       -0.802290759008
 C         -0.027615121517        0.808964772142       -1.342924141907
 C         -0.044073350103        1.034586192244       -2.656556973971
 C         -0.059317223572       -0.074728205369       -3.609754986592
 C         -0.128248211486       -1.395132362337       -3.066652980804
 C          0.079639663229       -1.660512398137       -1.731173596984
 O         -0.209537910406       -1.595483205262        3.469320441079
 O          0.094023863774        0.122685137406       -4.851154403349
