21
Frame 4
 N         -0.227227044913        0.670414972136        3.846833101013
 N          0.135085828006        1.496720610602        1.797239968555
 H         -0.129946783101        0.696970432735        4.845869963834
 H          0.187064893416        2.772776983912        3.434374297605
 H          0.144893315219       -1.850722321749        0.852263740237
 H         -0.023105885254        1.680790258650       -0.718407690210
 H         -0.006096045390        2.051358500281       -3.049262094302
 H          0.027781427277       -2.294543877404       -3.671222166132
 H          0.064912856456       -2.538254112848       -1.240859615833
 C          0.069663207419        1.763444988550        3.058440937592
 C         -0.043714642930        0.075085190255        1.722398383268
 C         -0.064869944355       -0.522368538761        3.072830469519
 C          0.067299864844       -0.753996652595        0.615494628178
 C          0.029718200216       -0.430330272016       -0.737899107706
 C         -0.073114581206        0.828387434002       -1.359350231032
 C         -0.093866548440        1.029942395501       -2.701922916865
 C         -0.030417701552       -0.089709324453       -3.691050989010
 C         -0.017771171179       -1.396975585448       -3.039069580492
 C          0.007431697836       -1.556992495710       -1.651287793248
 O         -0.022247603031       -1.673559532967        3.524038547904
 O         -0.001473339337        0.041560947328       -4.909451852876
