21
Frame 4
 N         -0.041253895345        0.696084949949        3.923392622643
 N          0.042938453922        1.457645441624        1.777004673735
 H          0.097576401379        0.792857893309        4.896977684076
 H          0.100159151860        2.748331853300        3.418771081213
 H         -0.164840643840       -1.912373579228        0.838566710813
 H         -0.118469202246        1.740300379728       -0.669739176781
 H         -0.153358384912        2.037292363708       -3.204852423637
 H          0.114503988787       -2.270357652362       -3.724451197198
 H          0.033299799160       -2.592670031954       -1.353332503186
 C          0.085572031640        1.764042426393        3.049114151021
 C          0.003589003986        0.002116463098        1.782356591055
 C          0.018613432313       -0.504233330686        3.136718682014
 C         -0.106617572517       -0.831825251682        0.610857682972
 C         -0.065360177228       -0.466553807002       -0.787237521032
 C         -0.146905973178        0.893699610455       -1.328330210313
 C         -0.052246673740        1.076909173812       -2.695820256863
 C          0.092516767438       -0.093170024512       -3.633049183718
 C          0.064237413232       -1.393559076986       -3.056139416501
 C         -0.033965323792       -1.521731551796       -1.729198705835
 O         -0.000597752325       -1.642608444896        3.630895056340
 O          0.230609155406        0.019802195728       -4.882504340819
