21
Frame 4
 N          0.175526525228        0.704145277908        3.845610142408
 N          0.039786243017        1.482528749918        1.714246047943
 H         -0.078276235454        0.763296211005        4.818583234801
 H          0.347028330508        2.813118777019        3.335895199789
 H         -0.205432375915       -1.892374227858        0.982994552809
 H         -0.366375457641        1.585375562056       -0.632690285463
 H         -0.118648946844        1.975078489181       -3.007240036655
 H          0.355957810021       -2.179224721915       -3.832494452586
 H          0.126337895912       -2.622821903509       -1.391434258304
 C          0.174037801701        1.810672642956        2.971249074656
 C         -0.033379107581        0.055778875826        1.711873011231
 C          0.032925938540       -0.465687379322        3.092235956664
 C         -0.235884984562       -0.833906725841        0.647419495537
 C         -0.196028126121       -0.581581294556       -0.765032189263
 C         -0.213310278223        0.744669267146       -1.269863941364
 C         -0.057993281142        0.977342016261       -2.589229773667
 C          0.047650477664       -0.025320618644       -3.627755309462
 C          0.058238720820       -1.372098020700       -3.059808766908
 C          0.021009564126       -1.592431146843       -1.751962711648
 O         -0.088910177862       -1.568729910381        3.638029515279
 O          0.215739663808        0.222170080292       -4.830624505798
