21
Frame 4
 N          0.097498752794        0.560186779692        3.951113132037
 N         -0.111926108346        1.549467131587        1.938741243350
 H          0.358347462421        0.402893508458        4.907455870294
 H         -0.146201885703        2.702452774791        3.674612973365
 H         -0.047711388096       -1.629741891726        0.831110628054
 H         -0.123221540954        1.889139052389       -0.904561168895
 H         -0.073012773600        1.943605598769       -3.379100543906
 H          0.064500934513       -2.411625423429       -3.568963484837
 H         -0.224444157622       -2.461378454083       -1.098251277975
 C         -0.045048927226        1.739875573090        3.249011351930
 C         -0.052567545886        0.146289294341        1.758304238962
 C          0.040893047962       -0.551584524993        3.022140311082
 C          0.022560146013       -0.568527142833        0.581078652327
 C         -0.086319868274       -0.331950263807       -0.802948443851
 C         -0.027653784150        0.968023850399       -1.470141908320
 C         -0.044661869335        1.010005635150       -2.869534208407
 C          0.117005490467       -0.192617863521       -3.677046072490
 C          0.094804738747       -1.458857744963       -3.001471770395
 C         -0.059775013446       -1.526810724807       -1.630665008260
 O         -0.042437713237       -1.688948199264        3.416798194413
 O          0.289372002957       -0.089896965240       -4.927682708478
