21
Frame 4
 N          0.175361400718        0.764636402851        3.796262375617
 N         -0.156199858830        1.330991310488        1.611259610311
 H         -0.072536929445        0.863577085160        4.793076266729
 H          0.073465833369        2.813716787395        3.082610881709
 H         -0.036684428641       -1.961536191065        0.883851648991
 H          0.026591880351        1.502779986714       -0.457626245961
 H          0.135894712562        2.047449220122       -2.998990113216
 H          0.099812605233       -2.163374216330       -3.837478105183
 H          0.061687796379       -2.552956035289       -1.301587522000
 C          0.033887156734        1.756657160318        2.859110259770
 C         -0.165176835301       -0.084048333157        1.738626271529
 C          0.033366285271       -0.488035754231        3.136912592647
 C         -0.128028993519       -0.875073379904        0.637718216026
 C         -0.102715916630       -0.538530140308       -0.719565029880
 C         -0.054069276331        0.778441143377       -1.217834068311
 C          0.021886825210        1.063959797287       -2.578183760616
 C         -0.008755973628        0.001111410228       -3.546632047136
 C          0.092247521386       -1.350428939167       -3.075927720274
 C          0.055486933200       -1.590497483536       -1.716209457355
 O          0.036486810551       -1.565899642293        3.723726418852
 O         -0.122007548639        0.247059811341       -4.813120472249
