21
Frame 4
 N         -0.012657773671        0.675236589588        3.878581646422
 N         -0.068007914492        1.480428698915        1.764291807840
 H         -0.039362756734        0.655368607381        4.889552003094
 H         -0.184709240396        2.768310596647        3.419426806703
 H          0.010602465947       -1.828758270567        0.887747065945
 H          0.240441324882        1.707513230777       -0.680339325825
 H          0.223991917666        1.944855152710       -3.156617096578
 H         -0.123530539260       -2.251227270293       -3.672946209303
 H          0.135457214265       -2.564402660067       -1.296968757225
 C         -0.101682392868        1.762931252508        3.063049401605
 C         -0.026485894880        0.049519408698        1.723814586896
 C         -0.018418084504       -0.481531164325        3.065443068013
 C          0.071066436625       -0.777539930254        0.614157639172
 C          0.095928031690       -0.449072028488       -0.732846824235
 C          0.113879962376        0.857182466315       -1.331272315381
 C          0.052564969620        0.995803674213       -2.684126934969
 C         -0.139232195677       -0.085196364781       -3.645839051584
 C         -0.079428528347       -1.378396182585       -3.029730343400
 C          0.085925127428       -1.543892415391       -1.655126505797
 O          0.025294051079       -1.622513263114        3.494422948132
 O         -0.261636180750        0.085379872115       -4.914673609527
