21
Frame 4
 N         -0.316844946524        0.664983250141        3.820582804084
 N          0.004509126983        1.502689923627        1.740143795827
 H         -0.328120778886        0.694365273251        4.838723798454
 H         -0.190180947784        2.742931207109        3.447539446377
 H          0.271769995869       -1.783832587532        0.989402814076
 H          0.358884500351        1.632886445378       -0.611902768215
 H          0.194631275239        1.979327279752       -3.144256147802
 H         -0.383376356308       -2.216788014293       -3.712442851870
 H          0.054350818855       -2.594752648603       -1.337864251356
 C         -0.196663973974        1.769725148425        3.006667603565
 C          0.232364898442        0.106873715425        1.707453973950
 C          0.062367116684       -0.493083907644        3.038221515938
 C          0.217363199963       -0.768862086556        0.630065502949
 C          0.080898706122       -0.486895877837       -0.756776835447
 C          0.203969935801        0.817232699119       -1.309566122168
 C          0.157912671033        1.027389182829       -2.649282858956
 C         -0.159517924858       -0.039140088613       -3.600506615647
 C         -0.176101913576       -1.433567893088       -3.042892884968
 C          0.020056947691       -1.605892517718       -1.685395058307
 O          0.165612526474       -1.615375695144        3.500168584832
 O         -0.273884877597        0.099787191971       -4.868083445315
