21
Frame 4
 N         -0.079797415437        0.692451241363        3.896618727954
 N          0.135504908409        1.519595742750        1.766798122328
 H         -0.163132163987        0.645250096618        4.889809034714
 H         -0.072932777100        2.820969241646        3.443062564916
 H          0.193324844207       -1.807897783796        0.954752881176
 H         -0.033209827637        1.622538800295       -0.660653397462
 H         -0.008758402919        1.954908823539       -3.153814986693
 H         -0.040219522712       -2.242542346620       -3.738115923196
 H         -0.152917175000       -2.612523385064       -1.359404294193
 C          0.025974511627        1.833471736815        3.064927660408
 C          0.094641904051        0.094418978160        1.739381821091
 C         -0.007253887792       -0.472905476338        3.109109599420
 C          0.095859788308       -0.777495837882        0.626589326915
 C         -0.000535707410       -0.539759338886       -0.749356965575
 C          0.022330559583        0.791247735896       -1.331436872664
 C         -0.019207504264        1.016246139055       -2.681787874606
 C          0.041686349022       -0.059325636911       -3.668359134223
 C         -0.000156733375       -1.374761519921       -3.078064121731
 C         -0.027131925149       -1.599262346218       -1.702287517186
 O          0.003761193232       -1.644068164472        3.518018860943
 O         -0.007831015659        0.139443299971       -4.885787512337
