21
Frame 4
 N          0.109115876393        0.716430511260        3.799805882766
 N         -0.185193588771        1.433720116260        1.698084683523
 H          0.040619547027        0.843595591568        4.818671172445
 H          0.024335334578        2.794990936601        3.344916345483
 H         -0.187432737502       -1.908551151854        0.898625793102
 H         -0.063258647086        1.645833495799       -0.616652361529
 H          0.060351604996        2.033959684523       -3.037596981793
 H          0.067431782816       -2.216740957977       -3.722357433434
 H         -0.216631842476       -2.608357575707       -1.341277165258
 C         -0.105298117970        1.765978666320        2.973332572621
 C         -0.035865133888        0.008868730719        1.740789673624
 C          0.114916845301       -0.491968114395        3.090469248432
 C         -0.059995083949       -0.839561728636        0.659578656549
 C         -0.154530406903       -0.512756826156       -0.723156001636
 C         -0.068864847587        0.796654372730       -1.261934909687
 C         -0.066884468727        0.986844119732       -2.656199963966
 C          0.145369603001       -0.066509708363       -3.633414265752
 C          0.086412294714       -1.367461963154       -3.018191795991
 C         -0.072072133387       -1.582389827451       -1.669703247109
 O          0.323643781321       -1.646528068592        3.527438426859
 O          0.243830338098        0.213949696771       -4.871228329250
