21
Frame 4
 N         -0.179109811402        0.645655137190        3.851978595673
 N          0.028120538965        1.491939177427        1.732253991955
 H         -0.048118819047        0.642325932667        4.824125725253
 H         -0.048173424830        2.731139338704        3.536715058648
 H          0.188096827440       -1.824322793387        0.913672136255
 H          0.223303836384        1.741880963603       -0.662834176875
 H         -0.072145487770        2.042700468354       -3.112237234604
 H         -0.088390451434       -2.285727188132       -3.653991953353
 H          0.035981367482       -2.533829221058       -1.186188805846
 C         -0.013841922257        1.757172224120        3.014445299292
 C          0.074996169813        0.076818279364        1.665037510059
 C         -0.113853481013       -0.463508369741        2.992748062379
 C          0.251895122877       -0.781329082592        0.596052660071
 C          0.162020981435       -0.450430534023       -0.777793919659
 C          0.120927425356        0.881593081909       -1.322353268137
 C          0.029858784693        1.030786912718       -2.669004927873
 C         -0.045115896683       -0.094258377392       -3.655051082349
 C         -0.016309172760       -1.434850028238       -3.000623910086
 C          0.092294452946       -1.580336413437       -1.647388798406
 O         -0.262790939745       -1.614909409023        3.413926976412
 O         -0.319646100451        0.021489900966       -4.853487938808
