21
Frame 4
 N         -0.102771890821        0.704740758060        3.873010088724
 N          0.165837059511        1.440017487174        1.749025413750
 H         -0.151003548295        0.743850336952        4.857618783978
 H          0.079517938016        2.742841222300        3.506638585382
 H         -0.164258330236       -1.816568337146        0.837754968583
 H         -0.129337726585        1.684453420068       -0.708493599356
 H         -0.095208169094        2.032765477845       -3.091980054716
 H          0.067013729569       -2.281361297939       -3.673074947424
 H          0.023315474131       -2.640220395395       -1.348680258686
 C          0.036876936801        1.775069271875        2.996316792206
 C          0.099079068059        0.025511395158        1.746520061010
 C         -0.011359566626       -0.458222720617        3.138804445407
 C          0.004294257752       -0.760600853784        0.614404115798
 C          0.091797419018       -0.489819665266       -0.784066291820
 C          0.035928609061        0.831625536414       -1.325942981494
 C         -0.077249880119        0.986080986087       -2.674732241553
 C         -0.045044610841       -0.040440869016       -3.652251452765
 C         -0.077609547263       -1.416003628100       -3.059918233282
 C          0.020375811067       -1.610258284690       -1.692069631043
 O          0.088548667128       -1.596135167614        3.557503149407
 O          0.141258299768        0.142675327634       -4.866386712106
