21
Frame 4
 N         -0.014556619000        0.754926250765        3.870578634737
 N          0.103569891376        1.433974278504        1.721122411570
 H          0.009923089326        0.747151238594        4.881897389283
 H          0.030286164151        2.861636659703        3.267124520040
 H          0.006756988626       -1.924732608558        0.883294087231
 H         -0.159582252263        1.653510531720       -0.610344806321
 H         -0.072535039079        2.003491542684       -2.928724130452
 H          0.119910633133       -2.186521410313       -3.755510378755
 H         -0.055646983335       -2.638523972131       -1.374257338180
 C          0.105823223886        1.805552884257        2.946459389521
 C          0.124550500060        0.035637085661        1.718516562436
 C         -0.009467898100       -0.500720078605        3.084503290907
 C         -0.002211080545       -0.851600679699        0.620261121767
 C         -0.027967488201       -0.562610869999       -0.754740088927
 C         -0.180655243362        0.787947274610       -1.284161539676
 C         -0.125183603199        1.005603170724       -2.642197319511
 C          0.021990921665       -0.041457181985       -3.640814088217
 C         -0.024722316307       -1.369753826942       -3.074657986353
 C         -0.040345175455       -1.581919586942       -1.726761610871
 O         -0.088763140143       -1.601461706723        3.631913164519
 O          0.278825426763        0.169871004673       -4.833501284748
