21
Frame 4
 N         -0.205991432026        0.679856616838        3.866764977558
 N          0.156903781164        1.450002932157        1.752262718206
 H         -0.186379204236        0.701946419984        4.873968923461
 H         -0.153028318752        2.807056176569        3.421536027732
 H          0.105443812798       -1.847944012496        0.853686979366
 H          0.176065012739        1.712492535969       -0.629555723919
 H         -0.095871353601        1.997046904854       -3.150844308373
 H         -0.183264303836       -2.262215457381       -3.736398201362
 H         -0.031522239125       -2.573850478106       -1.260385187062
 C         -0.024409413364        1.783987148453        3.019809445199
 C          0.151152163042        0.035941871089        1.759556106590
 C          0.031936587220       -0.498700233722        3.083152704995
 C          0.082077297605       -0.744021347558        0.611103362119
 C          0.094099689454       -0.462882197461       -0.779762805058
 C          0.133456958087        0.864012592224       -1.320857000033
 C          0.047898182134        1.020674061249       -2.672225938664
 C          0.032558114792       -0.089664399098       -3.625283000022
 C         -0.035508271679       -1.415801716819       -3.058330262949
 C          0.013702129116       -1.560363722062       -1.685870809774
 O          0.023221993893       -1.676828763495        3.554336785195
 O         -0.132541185426        0.079255068813       -4.876664793205
