21
Frame 4
 N         -0.211830337738        0.772870476597        3.755426308944
 N          0.191763289986        1.344006096466        1.647605554336
 H         -0.067222906575        0.839716839504        4.715068261408
 H          0.174021416296        2.787771050633        3.219633732566
 H         -0.168458220867       -1.927966883396        0.927392181746
 H          0.054834569656        1.665283809325       -0.543572765997
 H         -0.146361979764        2.036894622213       -2.923686047304
 H          0.181448968571       -2.247189245460       -3.698904387296
 H          0.212220586158       -2.631306954946       -1.425458629277
 C          0.055493608980        1.758808035614        2.843002430172
 C          0.105187700218       -0.072768055253        1.746495958974
 C         -0.077376814059       -0.491354223586        3.157259105282
 C          0.036701311437       -0.893113757365        0.655201929192
 C          0.024859184164       -0.560893351165       -0.712406012243
 C         -0.003482954955        0.783933232934       -1.234232115178
 C         -0.100742507864        1.033593765923       -2.578793760627
 C         -0.063866509246        0.000113673898       -3.639444058073
 C         -0.014396588069       -1.349405764643       -3.095379878931
 C          0.038291734054       -1.586264790599       -1.728424416043
 O         -0.129710999332       -1.545859461865        3.764732948908
 O         -0.091372551051        0.283130885174       -4.851516340560
