21
Frame 4
 N         -0.036349516065        0.684505433256        3.834113176111
 N          0.066265599193        1.480475481126        1.721762519958
 H         -0.028062782605        0.747820518074        4.829696858651
 H          0.037970466350        2.822665379116        3.322798790262
 H         -0.013286108405       -1.831358273876        0.935146450199
 H         -0.091470898060        1.580269730948       -0.581396393025
 H         -0.070462225354        2.089380906641       -2.972436739714
 H         -0.142033775937       -2.214189922369       -3.705415249895
 H          0.102844893045       -2.642345359174       -1.288817307644
 C         -0.018798849763        1.816683479168        2.966733728610
 C          0.093101392015        0.068714233192        1.714004317933
 C         -0.026181280591       -0.496173928172        3.025938996655
 C          0.087537287610       -0.779110625267        0.641019293377
 C          0.130082469603       -0.543596829440       -0.715820451061
 C         -0.076027788442        0.758328540898       -1.266686821940
 C         -0.003729695328        1.033103319657       -2.635528147064
 C          0.019184241134       -0.038971431894       -3.651696773248
 C         -0.064337668258       -1.396952791023       -3.052013701062
 C          0.111907932766       -1.613312073233       -1.692291191174
 O         -0.157244974925       -1.655510827837        3.449120656316
 O          0.079091282015        0.129575040209       -4.878232012244
