21
Frame 4
 N         -0.107936229718        0.581608672632        3.910957302625
 N          0.017469958970        1.522377203421        1.864138575108
 H         -0.065307838076        0.687518709440        4.903236027144
 H         -0.052482388806        2.723367865598        3.616413173091
 H          0.177192086420       -1.712520157414        0.885625730933
 H          0.146633713404        1.784231879608       -0.778630996360
 H          0.022658267648        1.977388751525       -3.199424041309
 H         -0.203373653794       -2.349914321362       -3.665423868675
 H          0.136529043250       -2.535744414283       -1.130468471597
 C         -0.051689824668        1.772587644859        3.103756651288
 C          0.113000614015        0.091924526692        1.731308998286
 C         -0.061359087090       -0.507059640840        3.037288242110
 C          0.182212473160       -0.696095290412        0.579507406413
 C          0.153982567076       -0.425953348764       -0.771706264329
 C          0.061200094683        0.875324372315       -1.395787109690
 C          0.000314195897        0.990441917815       -2.741343013762
 C         -0.074008882351       -0.155771368882       -3.689774748022
 C         -0.045781688255       -1.460155559132       -3.010054498416
 C          0.087657275712       -1.550601553497       -1.663561213132
 O         -0.255426370577       -1.702022801830        3.357850393186
 O         -0.181484326899        0.089066912513       -4.943908274892
