21
Frame 4
 N          0.075126920758        0.697171953776        3.877762689305
 N          0.084908854888        1.503769359533        1.777897617642
 H         -0.123756541656        0.747051140157        4.835623691241
 H          0.485240475420        2.769490473109        3.456474847254
 H         -0.112760254364       -1.867206092193        0.970023591257
 H         -0.270999594114        1.595310716748       -0.627532849358
 H         -0.073083468903        2.016149956275       -3.009965343388
 H          0.258206970083       -2.187371011548       -3.789742707960
 H          0.301682784460       -2.616054181884       -1.409827536009
 C          0.154319849178        1.807721244546        3.037513977602
 C         -0.100681795469        0.085239900423        1.733205172039
 C         -0.104941815829       -0.426725539136        3.070944239281
 C         -0.083807452450       -0.797308273229        0.658963818822
 C         -0.086158001953       -0.555334360283       -0.762676321897
 C         -0.229678444970        0.743736368052       -1.314613043788
 C         -0.215965797553        0.995624915805       -2.661133946048
 C          0.005468865344       -0.063289632725       -3.680010359602
 C          0.088144605606       -1.358256876405       -3.096008620165
 C         -0.005053702364       -1.627529360449       -1.737861218331
 O         -0.183473346366       -1.565809818924        3.588593806928
 O          0.137260890252        0.103619118352       -4.917631504824
