21
Frame 4
 N          0.055055289506        0.753730357566        3.836706696324
 N          0.060121512030        1.393879501929        1.679408662792
 H          0.191972017131        0.845193129406        4.838139957361
 H          0.523833078629        2.774697154484        3.230609110668
 H         -0.257999969579       -1.928221972326        0.871932668087
 H         -0.418218695500        1.616047885765       -0.559834650535
 H         -0.081147868157        2.037433162403       -2.906995952782
 H          0.553999317608       -2.131678262672       -3.711034933730
 H          0.172392380611       -2.647108324882       -1.368986455286
 C          0.251244161921        1.755696956978        2.907933925739
 C         -0.196903149057        0.013704871458        1.692573343330
 C         -0.194926838899       -0.446787563276        3.117855708927
 C         -0.286840300837       -0.847715521523        0.613592879262
 C         -0.151526002326       -0.541851727552       -0.758971559472
 C         -0.279449438805        0.775409460275       -1.244544908016
 C         -0.150420236931        1.011536381801       -2.591501387501
 C          0.031343061118       -0.034464912756       -3.611367945798
 C          0.232769909731       -1.331295310963       -3.051792111358
 C          0.112573521828       -1.575292702327       -1.732297697606
 O         -0.197697519681       -1.609933862200        3.587391420253
 O          0.029825769659        0.117021298415       -4.838816770660
