21
Frame 4
 N          0.020163972242        0.719045644808        3.935862497488
 N         -0.127495756779        1.466607140549        1.775820223088
 H          0.194549638520        0.672463114874        4.923280834176
 H         -0.169343860068        2.832257982532        3.365471310404
 H          0.027564673679       -1.824847509675        0.752231143545
 H          0.142163192192        1.633588483848       -0.609583111807
 H          0.057738153369        1.964840330194       -3.151307150517
 H         -0.076827374130       -2.265067652439       -3.730746826418
 H          0.050013107781       -2.593663223219       -1.332752810377
 C         -0.031572045282        1.799306189813        3.057155310600
 C         -0.113272171058        0.047105317001        1.733797062280
 C         -0.021543140617       -0.472335145304        3.140115933940
 C         -0.023209200444       -0.788856687595        0.605962680838
 C          0.058776849722       -0.468194438812       -0.775784587227
 C          0.140571476500        0.840110240575       -1.328347890325
 C         -0.008536030536        1.002728839410       -2.673759237587
 C         -0.066506511158       -0.084832705830       -3.652550943353
 C          0.031953454811       -1.429003679407       -3.083547212386
 C          0.029830291489       -1.583646923842       -1.698021242793
 O         -0.068985546498       -1.635409317654        3.635435993519
 O         -0.046033173736        0.167804000172       -4.888731977088
