21
Frame 4
 N         -0.126025378329        0.729609270492        3.883228706962
 N         -0.170572981109        1.384864725023        1.735691015933
 H          0.085527573044        0.683649933963        4.882370491073
 H         -0.179487980599        2.895180515259        3.271974727331
 H         -0.040152290047       -1.906672291432        0.928303799418
 H          0.094606436334        1.602935677698       -0.586318633743
 H          0.122817596386        2.113232265660       -2.996257499609
 H         -0.168242683912       -2.146147084063       -3.753267932324
 H         -0.141548491159       -2.639238622356       -1.312092879090
 C         -0.120342298995        1.817074891834        2.968409280377
 C          0.013371331388        0.000196568545        1.740385689602
 C          0.060854335239       -0.478690693317        3.105058800486
 C          0.011262420817       -0.837666654696        0.637441720710
 C          0.084395458490       -0.553112912536       -0.736542571874
 C          0.109188182420        0.798545597103       -1.317402737123
 C          0.107223907462        1.032087690152       -2.687556358233
 C          0.033806500852       -0.051481322628       -3.666407297708
 C          0.026594243077       -1.354445436950       -3.062807296672
 C         -0.015071495978       -1.601896786737       -1.729814969009
 O          0.259581171293       -1.577655932621        3.615666092084
 O         -0.047785556673        0.089630601607       -4.920062148589
