21
Frame 4
 N         -0.315826650266        0.704754908507        3.904766379443
 N          0.140101751003        1.493157288543        1.794193098971
 H         -0.050891595858        0.708556587869        4.877849036051
 H         -0.024032214979        2.776342465147        3.438747721477
 H         -0.030348559092       -1.813109593150        0.914678514162
 H          0.164969214583        1.635577835909       -0.628069917866
 H         -0.001540236821        2.034913866264       -3.085069786721
 H         -0.184569733627       -2.286044090843       -3.719523306587
 H          0.222782066487       -2.604105930730       -1.344520002120
 C         -0.047885685165        1.781010993289        3.039733268917
 C          0.036822603835        0.092419055729        1.716842751220
 C         -0.124670263179       -0.450799330773        3.107967157281
 C          0.070655122419       -0.758340696868        0.584009610872
 C          0.161851970935       -0.537839732144       -0.819056373674
 C          0.207346091489        0.815273928156       -1.326162189761
 C          0.091754074270        1.003744152006       -2.700313139761
 C         -0.051675209578       -0.063607721315       -3.656196925136
 C          0.058345693778       -1.400340047389       -3.080813245466
 C          0.088653271188       -1.627280895846       -1.726196986671
 O         -0.010147199422       -1.631585731348        3.549800204063
 O         -0.401694512000        0.127302688987       -4.842665868692
