21
Frame 4
 N          0.031717032358        0.629384451773        3.960037411777
 N          0.004254027491        1.518159302368        1.857736184976
 H         -0.184431145489        0.645358334066        4.932484018228
 H          0.129071876557        2.777193744719        3.569037617079
 H         -0.011769320609       -1.750976361358        0.794764685332
 H          0.029887094783        1.721678964500       -0.774873231421
 H          0.116234384995        1.970365429641       -3.184046681265
 H          0.155126942407       -2.236798907348       -3.695149413142
 H          0.111193455646       -2.571885070110       -1.291452657586
 C         -0.020950790448        1.744681735765        3.150526513231
 C          0.039229634419        0.112751321227        1.773946938665
 C         -0.016130100376       -0.503907199341        3.077633565235
 C         -0.012981258469       -0.670134294247        0.619661168564
 C         -0.108049881503       -0.468662799403       -0.755031585082
 C         -0.023847982382        0.846468961396       -1.405457220415
 C          0.038269536671        1.003017117344       -2.779177098394
 C         -0.167843239997       -0.098756099634       -3.695784635341
 C          0.013205517250       -1.406856234985       -3.014304430617
 C          0.047626404975       -1.562185063836       -1.658641512203
 O         -0.014787385175       -1.646779245533        3.492900556813
 O         -0.155024803104       -0.052118087004       -4.974810194437
