21
Frame 4
 N          0.036056483404        0.686224999775        3.851724113950
 N          0.064728440259        1.487296063527        1.713525750513
 H         -0.013635468467        0.680508872442        4.847081507082
 H          0.235655796074        2.759420941350        3.358444557716
 H          0.040783882640       -1.825647198355        0.875026493698
 H         -0.121263196656        1.649526914515       -0.611032372363
 H         -0.213053397808        2.067455985021       -3.135719485439
 H          0.050149567809       -2.250812643674       -3.666163243870
 H          0.154485818215       -2.662193379410       -1.365277953878
 C          0.062533297012        1.763131144753        3.030090585069
 C         -0.020849200957        0.050991306449        1.726420690538
 C         -0.094742222818       -0.488356487714        3.078835046898
 C          0.042097615716       -0.751616322008        0.640478733344
 C          0.038290296676       -0.492333652124       -0.742979467054
 C         -0.068135936191        0.830047667772       -1.310471391651
 C         -0.115768947652        1.057187699184       -2.689695723481
 C          0.028383357009       -0.080521403518       -3.641460176290
 C          0.004978814091       -1.412575219247       -3.029554204666
 C          0.044491513754       -1.585995741766       -1.660671522511
 O         -0.293827694458       -1.609237079096        3.593947646041
 O          0.138641182346        0.127497532125       -4.862549583648
