21
Frame 4
 N          0.152358369238        0.688829842398        3.936140341763
 N          0.156898942782        1.426978586449        1.793706452306
 H         -0.117749079664        0.811390778498        4.896006236191
 H          0.308299755921        2.778435400114        3.364482036488
 H         -0.120002463400       -1.880604708036        0.889193304364
 H         -0.100180049056        1.693071966694       -0.673395256015
 H         -0.335762456780        1.998960605391       -3.163685471200
 H          0.271410358167       -2.199817190409       -3.829464679152
 H          0.160995568679       -2.547545437720       -1.265330217108
 C          0.188354059632        1.757208321347        3.062174037481
 C         -0.068106723516        0.012730876407        1.787973817579
 C         -0.140194412860       -0.515379302959        3.140726067895
 C         -0.026512345591       -0.803730997905        0.618530777686
 C          0.017496240934       -0.489007082445       -0.759289657705
 C         -0.067598436222        0.827170354815       -1.333523388004
 C         -0.116475712003        1.013505656391       -2.705047674029
 C         -0.016257680761       -0.080031551639       -3.660370651971
 C          0.155014112042       -1.385821123889       -3.069912080225
 C          0.142720912708       -1.538570380286       -1.724357932363
 O         -0.391500081878       -1.637319534101        3.581516566995
 O         -0.053208878373        0.069544920884       -4.886072630976
