21
Frame 4
 N          0.223436225383        0.715075590376        3.829812115886
 N         -0.057381113433        1.411867357278        1.724842478109
 H          0.069075851002        0.743243758682        4.856632026174
 H         -0.029187741348        2.830909200448        3.404021204358
 H         -0.206875523622       -1.887951977287        0.883067626196
 H         -0.404998425052        1.659192504601       -0.612857327376
 H          0.069482625848        2.029561332868       -3.136594458103
 H          0.159716548202       -2.236938143987       -3.801380142408
 H         -0.213122686514       -2.640215633272       -1.258691909934
 C          0.041242212779        1.810341435091        2.972005309023
 C         -0.053801435482        0.000294627067        1.719403849372
 C          0.221971794008       -0.473979533858        3.054396708375
 C         -0.211087001623       -0.823055387806        0.608090614635
 C         -0.259884359709       -0.490074396059       -0.786732925112
 C         -0.207734234320        0.847334891562       -1.305678154945
 C         -0.078974413299        1.029975199415       -2.651177612436
 C          0.189419666375       -0.053922546940       -3.550590202122
 C          0.013757684435       -1.447399355937       -3.066035815051
 C         -0.235674380448       -1.613040858441       -1.724000834553
 O          0.356073600146       -1.598373262682        3.532429493258
 O          0.614545106669        0.187155198881       -4.690962043342
