21
Frame 4
 N          0.021546395705        0.709251169632        3.842509155440
 N         -0.016201194028        1.419039715448        1.736154244376
 H         -0.275581565848        0.709882024728        4.820168080215
 H         -0.345716992955        2.793530226926        3.293621688267
 H          0.176861086272       -1.810585152160        0.912892372866
 H          0.406910874255        1.684621491702       -0.650974701749
 H          0.083106260808        2.017804560676       -3.077852255674
 H         -0.294420547478       -2.224855078149       -3.634213931267
 H         -0.039889766323       -2.599428254116       -1.316583353585
 C         -0.196976949833        1.781400489408        2.954313880968
 C          0.110771658097        0.044674043288        1.746095961688
 C          0.084312168850       -0.528428073113        3.054074570379
 C          0.181662554343       -0.768893879379        0.624145450878
 C          0.232732402286       -0.483068857125       -0.739593212628
 C          0.306350785230        0.842431313495       -1.299734331129
 C          0.104568580611        1.014627640620       -2.633959146411
 C         -0.125568957261       -0.069581979711       -3.617651296619
 C         -0.088127238366       -1.381037620606       -3.000872174315
 C          0.035293711868       -1.539810441905       -1.652259927195
 O         -0.018777852981       -1.717269364917        3.475845396735
 O         -0.342855413255        0.105696025261       -4.836126471239
