21
Frame 4
 N         -0.085378211088        0.692679943135        3.890650338596
 N          0.080189249118        1.417087817479        1.752301475291
 H         -0.265155270562        0.728969281962        4.882729146453
 H         -0.212046354873        2.782710888847        3.364816247693
 H          0.012296674992       -1.821490215383        0.889940268482
 H          0.211693235034        1.696947443960       -0.606170496408
 H          0.004517981702        2.075251334343       -3.175750477873
 H         -0.194524387568       -2.261476847945       -3.722226150055
 H          0.007590264073       -2.597502515139       -1.317013744793
 C          0.034712052884        1.748166297316        3.028855308620
 C          0.079025178515        0.049612254098        1.760256687767
 C         -0.001501293410       -0.504505727577        3.118901244170
 C          0.066787568637       -0.727701992490        0.623194288780
 C          0.194585726254       -0.502272514037       -0.731722475227
 C          0.160996634887        0.840021733131       -1.344410724529
 C          0.093837996215        1.073235959874       -2.728111984775
 C         -0.085496454396       -0.077512875719       -3.653501000054
 C          0.001462380773       -1.416282008445       -3.054045064589
 C          0.083429855380       -1.601921018644       -1.664913217900
 O          0.068768587147       -1.676011483527        3.581390688810
 O         -0.255791413714        0.081994244758       -4.895170358456
