21
Frame 4
 N         -0.081348555405        0.635018176301        3.950807450223
 N          0.027040339604        1.503391155666        1.829846831873
 H          0.008440200258        0.585353233394        4.962753851848
 H          0.018636970492        2.795894266192        3.531584890281
 H         -0.037832836510       -1.694694818329        0.828986196434
 H          0.154762201625        1.652065606346       -0.668536444568
 H         -0.132016858112        2.043322688213       -3.158088343261
 H          0.065321739385       -2.275126932440       -3.703057464717
 H         -0.096870801438       -2.567757537699       -1.262517965452
 C          0.021459338148        1.791502079933        3.118945859997
 C         -0.072551439151        0.106323023971        1.744376998502
 C          0.010760957696       -0.487820740497        3.086325369547
 C         -0.087867910458       -0.641740624392        0.599850160456
 C         -0.007730650391       -0.427345166410       -0.789993245050
 C         -0.010802773109        0.851088428588       -1.398078480320
 C         -0.122416590226        0.990105736466       -2.770038006095
 C          0.061048338729       -0.139895997213       -3.683668463411
 C          0.082033487239       -1.449636810489       -3.048693237505
 C         -0.025455855766       -1.553337458574       -1.703331383446
 O          0.114842065714       -1.660951168788        3.426787024893
 O          0.110548631677       -0.055757140240       -4.894261600229
