21
Frame 4
 N         -0.068562560155        0.618123246604        3.901795671724
 N          0.134935939557        1.516223307641        1.811878775447
 H         -0.324524142710        0.571335097525        4.874295444678
 H         -0.137044182291        2.783991380820        3.434914664516
 H          0.217611930861       -1.767022178606        0.944723456010
 H          0.040674472243        1.745516101734       -0.773319997478
 H         -0.031251583947        2.054000449009       -3.150273230151
 H         -0.340153898569       -2.296665949916       -3.581059449101
 H          0.054541490947       -2.586381319574       -1.263683721354
 C          0.013503243645        1.745245784143        3.097000012746
 C          0.110308953290        0.123370860020        1.706440316230
 C          0.010875276737       -0.510603288113        3.009793232485
 C          0.240462312955       -0.692028386109        0.592996932359
 C          0.172062611856       -0.424811918337       -0.760076185512
 C          0.119687634571        0.869788252279       -1.396721618793
 C          0.108560547681        1.020242218994       -2.750294516702
 C          0.001748696526       -0.117781646254       -3.648312666077
 C         -0.069366752399       -1.399029248445       -2.968363094750
 C          0.106168985512       -1.558705043476       -1.610113036187
 O         -0.153682723676       -1.713476672023        3.431217933992
 O         -0.206556252634        0.018668952084       -4.902838924082
