21
Frame 4
 N         -0.235081904093        0.663338255670        3.820335156550
 N          0.149926446837        1.464385471486        1.778533410315
 H         -0.374460705266        0.688257608743        4.842734991895
 H         -0.155169973804        2.787484402605        3.334043300571
 H          0.261416244793       -1.843816752031        0.861296802500
 H          0.236329653713        1.698610038106       -0.668553610501
 H          0.048325054196        2.087574905782       -3.034024815213
 H         -0.143852348551       -2.291256062517       -3.664155839187
 H         -0.108588545228       -2.562681640987       -1.230102980767
 C         -0.089260354361        1.742606932159        3.020349174808
 C          0.259067918241        0.055668175604        1.745680334144
 C          0.016566744978       -0.504817160980        3.101047786428
 C          0.239696581485       -0.796642023339        0.635583470240
 C          0.120418286215       -0.497042648218       -0.738949311661
 C          0.147662845089        0.846369964832       -1.340017354049
 C          0.048437582967        1.053254832998       -2.708726372735
 C         -0.076330245774       -0.037053832803       -3.683783486239
 C         -0.168493254930       -1.362501887478       -3.017255637843
 C         -0.047502910567       -1.566083424131       -1.657585600710
 O          0.075441657702       -1.656512850664        3.559156034259
 O         -0.204548773643        0.030857695163       -4.955605452806
