21
Frame 4
 N         -0.077944945634        0.675005938281        3.870577980484
 N         -0.037068707094        1.450857747267        1.805652526972
 H         -0.013334461135        0.650762588216        4.884268094577
 H         -0.419788742106        2.775707303707        3.403479655588
 H          0.232360579293       -1.772206669646        0.865273251584
 H          0.203050798277        1.696379294913       -0.713507062481
 H          0.287358696840        2.047054751898       -3.115977309884
 H         -0.195217304341       -2.307254122926       -3.656964831102
 H         -0.204379242736       -2.603658477672       -1.233820577916
 C         -0.131777096784        1.781078835839        3.063387081201
 C          0.045340955678        0.063573482780        1.737778711810
 C          0.071057703358       -0.494377908140        3.063929349297
 C          0.056177524224       -0.712032838777        0.614422987706
 C         -0.007130572207       -0.471078030196       -0.765380746872
 C          0.052139699293        0.862069610450       -1.352081246329
 C          0.140220944538        1.007814309422       -2.689271326049
 C          0.014005431265       -0.097078987591       -3.655015974889
 C         -0.109772520661       -1.445270583687       -3.047646007849
 C         -0.111942922073       -1.578756900881       -1.676267054349
 O          0.288082130287       -1.660562854819        3.483213851570
 O         -0.081437948284        0.131973511561       -4.886051353069
