21
Frame 4
 N         -0.110208184611        0.806695487989        3.772523883252
 N         -0.063711556171        1.346416716757        1.587913328597
 H          0.230847090819        0.877929245992        4.749706076490
 H         -0.282407469179        2.821805376482        3.113603571027
 H          0.112419903502       -1.953277218289        0.958051924494
 H          0.231653250865        1.547462550004       -0.494506152958
 H          0.049369606858        2.123566318541       -2.904381920009
 H         -0.100269465208       -2.230101391196       -3.852318497420
 H          0.003028247751       -2.707653424190       -1.418119147823
 C         -0.115904129270        1.787580687148        2.838626993879
 C         -0.035041620669       -0.064169916943        1.741810575240
 C         -0.039516538654       -0.454723306290        3.126980330150
 C          0.102424926641       -0.930985040465        0.647495245389
 C          0.070399444762       -0.615957536645       -0.732823197026
 C          0.192682600497        0.741883021041       -1.217310265456
 C          0.106479870923        1.068243987658       -2.558807516512
 C         -0.041102552346        0.019344969439       -3.556265059218
 C         -0.082207457096       -1.370758890152       -3.092117721677
 C         -0.049211416736       -1.655952050548       -1.724573797756
 O         -0.049767255473       -1.542634160885        3.775283378812
 O         -0.129957297204        0.385284574553       -4.760772031474
