21
Frame 4
 N          0.025621456125        0.795193313365        3.792944466338
 N         -0.126132848649        1.445768427136        1.658516968120
 H         -0.123389311278        0.696218851248        4.769784854410
 H         -0.176539332913        2.863186745806        3.280765847961
 H          0.018197455198       -1.893261475921        0.937752443174
 H          0.067591600050        1.572771550946       -0.494828549175
 H          0.044687609593        2.030801526826       -2.905883325888
 H         -0.187985963935       -2.212073961070       -3.799643818545
 H         -0.154330752954       -2.672609405690       -1.458022308434
 C         -0.116198526319        1.826508764523        2.893311734957
 C          0.052665040220        0.010556354959        1.707710541003
 C          0.084918777541       -0.426280138028        3.082169996421
 C          0.068800845755       -0.880527028784        0.625827110618
 C          0.022002685185       -0.560789505809       -0.713426168290
 C          0.102120982679        0.771782166818       -1.229644177725
 C          0.118082108322        1.004129582392       -2.562092564905
 C          0.048527711828       -0.053060664454       -3.561344364787
 C         -0.091389030267       -1.416462065252       -3.068210320347
 C         -0.044810155219       -1.610701003348       -1.731916870658
 O          0.277632233395       -1.542103040790        3.574905532973
 O          0.089927415642        0.250951005127       -4.798677027220
