21
Frame 4
 N         -0.108780478366        0.680823315799        3.878691355697
 N         -0.083416246112        1.469306207638        1.737445060114
 H          0.131988957813        0.762664418229        4.857795490693
 H         -0.339571322551        2.764038075046        3.403633186011
 H          0.144696794978       -1.831146181192        0.841194488206
 H          0.146389659256        1.647155562190       -0.670215698513
 H          0.266535715121        2.029608164749       -2.991917438195
 H         -0.102614656278       -2.281184118281       -3.715625568725
 H         -0.145260758049       -2.597509362988       -1.289721127761
 C         -0.190595629524        1.777842615986        3.011234588057
 C          0.040482119876        0.042881604051        1.753861483842
 C          0.105623142343       -0.487776309197        3.109318361315
 C          0.031517521557       -0.754330510444        0.619992388068
 C         -0.038038459752       -0.525228886883       -0.739526526938
 C          0.062035541696        0.795599208690       -1.322501005159
 C          0.166938621096        0.982265092917       -2.681296917895
 C         -0.026900001420       -0.080081817201       -3.691120926440
 C         -0.125775981026       -1.392022637739       -3.087987956604
 C         -0.127323455330       -1.558036067667       -1.709002012951
 O          0.226176622741       -1.621865431557        3.633172644285
 O         -0.034107708067        0.176997057853       -4.947423867106
