21
Frame 4
 N          0.053137342153        0.718433327532        3.817417309726
 N          0.096288938162        1.395272288361        1.691790244075
 H          0.027929613433        0.770111541108        4.836061986879
 H         -0.058904465932        2.808408275969        3.208422566597
 H         -0.175801978115       -1.896262774568        0.996712438808
 H         -0.102922425465        1.668708394155       -0.611584169295
 H         -0.074625623459        2.027841405993       -3.009570955327
 H          0.055074284266       -2.141482279821       -3.810582048769
 H         -0.005074996509       -2.653634707556       -1.357588256204
 C          0.098713303877        1.780050653608        2.936447613422
 C         -0.004460269013       -0.024542383686        1.731921579193
 C          0.004982090705       -0.488044916420        3.072097117582
 C         -0.080338216453       -0.842549911106        0.618809245841
 C          0.003161631843       -0.541773650367       -0.717272195762
 C         -0.061509025500        0.804270100306       -1.285585154591
 C         -0.043257827724        1.029154711060       -2.612709228655
 C          0.077120963294       -0.041793392964       -3.590313186807
 C          0.086055350159       -1.396398983517       -3.038485888326
 C          0.028981270881       -1.597765563467       -1.679234264152
 O         -0.004014910018       -1.579223188060        3.625351072068
 O          0.079464949416        0.201221053438       -4.822105826302
