21
Frame 4
 N          0.020965312308        0.702155602061        3.832251898256
 N         -0.003462790680        1.422330310396        1.713919362650
 H         -0.185714442130        0.762842573393        4.802690636809
 H         -0.049288850683        2.810008804221        3.242066997907
 H          0.093449877389       -1.855785508514        0.852914434971
 H          0.405696315029        1.557175514256       -0.519819435006
 H         -0.255344942496        2.036636289414       -2.929867024267
 H         -0.263493613283       -2.160367222964       -3.815185253029
 H          0.222190948579       -2.586797483132       -1.248578108627
 C         -0.050951211739        1.785552447580        2.954382172436
 C         -0.029141145215        0.045322438854        1.694456568272
 C         -0.097707228013       -0.476226291330        3.085958039070
 C          0.171869603675       -0.795827582067        0.603304059426
 C          0.271623107424       -0.526120760718       -0.746421683966
 C          0.218078340560        0.779364483607       -1.275962260534
 C         -0.026519712084        1.039030665491       -2.619303811801
 C         -0.104200928271       -0.072789467154       -3.610433824729
 C         -0.075547867531       -1.413059974089       -3.043385399500
 C          0.129980557541       -1.603825095293       -1.698726424470
 O         -0.247217474650       -1.595626099848        3.568904971328
 O         -0.145263855729        0.146006355833       -4.843165915196
