21
Frame 4
 N         -0.161115659406        0.671966178982        3.868981138388
 N          0.214544491915        1.460415828081        1.806808731318
 H         -0.368486752596        0.755886861047        4.824791514923
 H          0.015373305559        2.757781976065        3.494099810608
 H         -0.004804559415       -1.802477454859        0.902893639254
 H          0.018076331117        1.690498863502       -0.675359654992
 H         -0.023220413788        2.022936811278       -3.095179705909
 H         -0.165301924691       -2.262454586925       -3.753292295764
 H          0.233746846994       -2.577098598512       -1.303208063048
 C          0.084656608365        1.743197492989        3.059018714130
 C          0.175012544970        0.053658297366        1.766274068563
 C         -0.063840977016       -0.469551742548        3.086205259094
 C          0.185124021823       -0.732634870469        0.619939052445
 C          0.174610265268       -0.480614797485       -0.818355206527
 C          0.102957166175        0.839315000130       -1.336523548913
 C          0.021278827434        0.990758229057       -2.697530380236
 C         -0.116309168396       -0.110322747679       -3.658624766332
 C         -0.068630970733       -1.427970870332       -3.051081634515
 C          0.117868784478       -1.582327415999       -1.717337387702
 O         -0.126976795296       -1.635549252941        3.562762594280
 O         -0.244561972762        0.094586799253       -4.885281879068
