21
Frame 4
 N         -0.247760167263        0.668599444007        3.822079464940
 N          0.117636549244        1.431017384847        1.692899776694
 H         -0.292430779436        0.771998620484        4.803932119715
 H         -0.350330507359        2.745664086779        3.320594712067
 H          0.185478221813       -1.868457433682        0.871618564628
 H          0.412293878338        1.674854892928       -0.640177682978
 H          0.092372993048        2.096031568087       -3.071676491965
 H         -0.288461955473       -2.254835306944       -3.699703728067
 H         -0.226078080564       -2.539372801263       -1.265549495712
 C         -0.205346315256        1.709290599576        2.921051114637
 C          0.212447592054        0.026616079039        1.732886498478
 C          0.141325364768       -0.519812687078        3.110536807328
 C          0.248415569237       -0.815024880614        0.611798321282
 C          0.139669941855       -0.495685093468       -0.746091426925
 C          0.188141041573        0.830736687967       -1.325643415517
 C          0.048460466401        1.094124335028       -2.682240806679
 C         -0.126191029162       -0.061192987678       -3.608210326292
 C         -0.116087885149       -1.395715696135       -3.004701516053
 C          0.001656133904       -1.578213453413       -1.650104329477
 O          0.208645120008       -1.636786818849        3.677997371904
 O         -0.143856152581        0.116163460382       -4.871295532011
