21
Frame 4
 N          0.009829242299        0.678750247656        3.924929625965
 N         -0.006367681177        1.389587271743        1.774985748658
 H         -0.141065765189        0.747401206965        4.960985967779
 H          0.148584500031        2.791406274601        3.344088445648
 H          0.250035051808       -1.806834984928        0.908878583262
 H         -0.073412099320        1.727647516123       -0.632821483978
 H          0.073498839431        2.028999336661       -3.226979646283
 H         -0.118392569932       -2.288856233011       -3.663589138591
 H          0.151087124312       -2.598373551420       -1.341712970556
 C          0.007117026552        1.735445412014        3.031466650828
 C         -0.043578093959       -0.016971319869        1.756625224868
 C         -0.105586595793       -0.523306191590        3.112602257067
 C          0.095249417430       -0.773255932510        0.605816655521
 C         -0.003134442059       -0.435924367275       -0.763735160990
 C         -0.059894312371        0.900595718975       -1.350093735064
 C         -0.034812100910        1.030496851260       -2.717587685327
 C         -0.050064041542       -0.077798763519       -3.698776155658
 C         -0.101427802578       -1.380550294217       -3.012804550096
 C          0.060056956002       -1.549472197599       -1.659133006290
 O         -0.113406848627       -1.666960935490        3.564365085749
 O          0.055684195590        0.087974935430       -4.917510712511
