21
Frame 4
 N         -0.187990392149        0.728785876419        3.877233463441
 N          0.029559134456        1.434593435715        1.765958788562
 H         -0.191005423342        0.749554848826        4.887606608450
 H          0.100143733524        2.782325624349        3.465665119135
 H          0.061327375678       -1.823083771176        0.929431786544
 H          0.246755448750        1.656191722734       -0.649338023579
 H         -0.044908940890        2.008242642518       -3.121677239109
 H         -0.076424135256       -2.254467024251       -3.784551859963
 H          0.212612191147       -2.623730529423       -1.441632661291
 C         -0.022777875061        1.756388522440        3.028212975490
 C          0.025211014839        0.044119122590        1.746892899220
 C         -0.106594318834       -0.459614351918        3.091879628928
 C          0.039570302465       -0.778679175429        0.644509278397
 C          0.107829684934       -0.545066480798       -0.735041607434
 C          0.164333356635        0.813940977911       -1.322797269165
 C         -0.004532969980        1.013389670829       -2.673819065131
 C         -0.087718893887       -0.076984629163       -3.624680909141
 C         -0.069607969978       -1.408917040092       -3.077359914571
 C          0.122908019503       -1.597684761549       -1.749299562142
 O         -0.041568119220       -1.564278112194        3.611054400628
 O         -0.277121223333        0.144973431662       -4.868246837266
