21
Frame 4
 N          0.096968519719        0.723590796158        3.911963442829
 N         -0.277279565846        1.495632202491        1.760816118229
 H          0.064229362818        0.718885902872        4.942790917079
 H         -0.210054923521        2.784887771098        3.436930942589
 H          0.009435082692       -1.780249377364        0.920403063298
 H          0.230351827928        1.557762385843       -0.605789055512
 H          0.151952414060        1.989409445396       -3.060886795146
 H         -0.135248706345       -2.254540774579       -3.863583530713
 H         -0.056441967246       -2.606667290439       -1.316059244770
 C         -0.095984440156        1.810616878299        3.034172700337
 C         -0.076215850055        0.096807302269        1.715381613707
 C          0.029497926205       -0.440781875831        3.097639577887
 C          0.020274049572       -0.740207623073        0.602743672962
 C          0.103148327957       -0.545577332049       -0.787324415071
 C          0.120581453831        0.764656827403       -1.306755257361
 C         -0.025711489263        0.967743839811       -2.641436631973
 C         -0.015153742280       -0.101502877915       -3.630942443647
 C         -0.045527056016       -1.418769181467       -3.114239799300
 C          0.017407820633       -1.623168601948       -1.737334421937
 O          0.121973180865       -1.601120634909        3.504186691297
 O         -0.028202225552        0.202592217934       -4.862677144784
