21
Frame 4
 N          0.262809478090        0.660685016911        3.858550887703
 N         -0.209704267327        1.446611247540        1.733884150534
 H          0.086771322719        0.649767640287        4.864357701649
 H          0.012270109904        2.783609941745        3.416753371331
 H         -0.027662779683       -1.810525567819        0.995194654389
 H         -0.092611227159        1.720163374160       -0.696154868336
 H          0.033897990697        2.000118518066       -3.261975408152
 H          0.049100661655       -2.229691410986       -3.700654486346
 H         -0.067862823278       -2.542709841658       -1.217762845418
 C         -0.057987803563        1.785296315537        3.008610679550
 C         -0.101976787859        0.071469691122        1.712258867026
 C          0.039806868162       -0.558295478085        3.099494883144
 C         -0.072562944543       -0.767136470610        0.634002005453
 C         -0.065983721425       -0.475119391082       -0.763759106564
 C         -0.055041114507        0.864803592805       -1.333591608948
 C          0.092919495208        1.027059167834       -2.699812413836
 C          0.079212872614       -0.067064679501       -3.629664759091
 C          0.116926471875       -1.398342391386       -3.019779902437
 C          0.004584302490       -1.582887318856       -1.672930768934
 O         -0.037968511035       -1.693875989227        3.570002964269
 O          0.011062406969        0.116064033203       -4.897023996984
