21
Frame 4
 N         -0.061477770269        0.703576451132        3.818863125212
 N          0.080767603935        1.461378436031        1.713085574351
 H         -0.102151904354        0.660160239948        4.831816873958
 H          0.086873426422        2.817750405078        3.348463385422
 H          0.076653935738       -1.800962434964        0.903506098861
 H          0.123440412558        1.586780264395       -0.597549819700
 H         -0.004543126385        2.075991890199       -2.936240679311
 H          0.110590972226       -2.245598887470       -3.747606745415
 H          0.141984110494       -2.644543836466       -1.307842949207
 C          0.043897842872        1.801260564310        2.974833279361
 C         -0.012097186479        0.061387632264        1.685940951994
 C         -0.112064845213       -0.452323738665        3.078050276712
 C          0.083596711614       -0.751699486296        0.573518977631
 C          0.056660577615       -0.557350782325       -0.775609345091
 C          0.008190001495        0.766960976950       -1.283181596846
 C         -0.028869386998        1.027911893858       -2.596899188420
 C         -0.081051541924       -0.066139253607       -3.625535866362
 C          0.025989599557       -1.405948607130       -3.074454540762
 C          0.039762373853       -1.606855665519       -1.695259840840
 O         -0.203162317223       -1.573684178347        3.570241004481
 O         -0.272989489534        0.141948116625       -4.858138976027
