21
Frame 4
 N         -0.188352254983        0.658708424329        3.850789396059
 N          0.037195024149        1.461287674181        1.758908968264
 H         -0.364225290738        0.574822792202        4.816999801676
 H         -0.140584356127        2.763755489970        3.398056861749
 H          0.130524869005       -1.793614571978        0.902335518016
 H          0.300101088936        1.685895872602       -0.638928746929
 H          0.251762445882        2.036716739982       -3.190189363709
 H         -0.286504588291       -2.283312269419       -3.609801419315
 H          0.231868211071       -2.595972660496       -1.217397481733
 C         -0.039361607689        1.759612332292        3.046399781378
 C          0.105153472935        0.098295776772        1.701538578434
 C         -0.033296722099       -0.469290249053        3.040377121729
 C          0.136321976122       -0.760752633293        0.584260591490
 C          0.152859024199       -0.470195875798       -0.793837331982
 C          0.196469120793        0.890276564242       -1.343184837094
 C          0.106617842204        1.051060564125       -2.696292505984
 C         -0.250285668790       -0.078614064817       -3.586880241464
 C         -0.033396880641       -1.412137433407       -3.014509491874
 C          0.079599457587       -1.633383995168       -1.677418343258
 O          0.059410639171       -1.595945631385        3.475625873102
 O         -0.451875802698        0.112787154115       -4.806852728555
