21
Frame 4
 N          0.030859455337        0.635318485327        3.915367472062
 N         -0.246531425256        1.479298398979        1.847093385452
 H         -0.038955745018        0.515807134817        4.921983433694
 H         -0.239367982783        2.734312874408        3.515804055465
 H          0.007663239422       -1.708360389527        0.971298004642
 H          0.179115497680        1.703409402229       -0.766685925594
 H          0.120828783218        1.984088721464       -3.262308600217
 H         -0.249031886404       -2.220472541420       -3.701015227464
 H         -0.287337165446       -2.481607755632       -1.165984633263
 C         -0.214234028515        1.734697567752        3.127046957359
 C         -0.026566084019        0.123712450823        1.767376913871
 C          0.177597756877       -0.479213453881        3.051701567705
 C          0.015636390078       -0.701212944793        0.621102464209
 C          0.008001729226       -0.413208096934       -0.767075847073
 C          0.112589206305        0.849204509155       -1.444651010238
 C          0.164126332340        1.013944188912       -2.824024413011
 C          0.046252899637       -0.133874231888       -3.690164372804
 C          0.005180477156       -1.413901254953       -3.015374008325
 C          0.029768594219       -1.573476868191       -1.653616799593
 O          0.375016021211       -1.645013513162        3.487343310106
 O          0.029387934735       -0.003452683486       -4.935216726985
