21
Frame 4
 N         -0.083626112799        0.668924549046        3.885832070769
 N          0.139799948065        1.491734332461        1.811706210734
 H         -0.345834332305        0.554329352745        4.859729475653
 H         -0.082408276557        2.819407257583        3.426915310564
 H          0.283192545781       -1.772360472946        0.888162545819
 H         -0.190944493876        1.716762977620       -0.734633997337
 H         -0.030314687755        1.961762548919       -3.162877637200
 H         -0.246117066062       -2.255213430444       -3.638506789907
 H         -0.268103751227       -2.591061872334       -1.292104959874
 C          0.019658717634        1.776282808734        3.070420664357
 C          0.209370600788        0.096143477336        1.755551033593
 C          0.115435814521       -0.534155510831        3.069043567919
 C          0.240421167916       -0.695114164669        0.614391791594
 C          0.066069920270       -0.394980667432       -0.741665572890
 C          0.008285520952        0.874301883348       -1.395014855947
 C          0.036438125509        1.017512547131       -2.714577331151
 C          0.049303039523       -0.131182724638       -3.665537644057
 C         -0.051010681697       -1.406137709744       -2.989222354747
 C          0.021729340381       -1.569629012807       -1.625533448417
 O         -0.018465142404       -1.694083592212        3.481113405819
 O          0.127119803342        0.066757423133       -4.903191485294
