21
Frame 4
 N         -0.169297318211        0.737293192400        3.888189058940
 N          0.289918972472        1.401581986988        1.812136100304
 H          0.027195587180        0.778391258085        4.853508397937
 H          0.097142900236        2.836140002545        3.338501503263
 H          0.013140004547       -1.874080773264        0.812282215363
 H         -0.091397154747        1.698408939227       -0.721786234343
 H         -0.213550368654        1.982353781688       -3.059157662909
 H          0.047131279716       -2.182127062261       -3.831788581398
 H          0.044854201888       -2.645043173299       -1.348315859361
 C          0.065617300538        1.798605281390        3.031255657393
 C          0.061257264504        0.013273114711        1.766789073582
 C         -0.141553026984       -0.505936325286        3.166808988697
 C          0.083235221146       -0.773131322365        0.639678930298
 C          0.106195012721       -0.531551982123       -0.742299066971
 C         -0.026706382286        0.810972326365       -1.316396751150
 C         -0.084696187029        1.004229938126       -2.661867978459
 C          0.034210379065       -0.070118423033       -3.637359047399
 C          0.071254926663       -1.358073424154       -3.026441188896
 C          0.099845892154       -1.597971233900       -1.706390030910
 O         -0.262941159304       -1.649884454758        3.617827451844
 O         -0.050857345614        0.126668352919       -4.875174975828
