21
Frame 4
 N          0.012687242643        0.691054023441        3.899277648099
 N          0.110746325223        1.441122430948        1.815389135190
 H         -0.228839937081        0.690676378433        4.869908348549
 H          0.387430037088        2.768703794610        3.468786854097
 H          0.037681673888       -1.852879596187        0.818489513639
 H         -0.118427494002        1.768345194137       -0.747812844373
 H         -0.075865416314        1.971343512205       -3.135760821520
 H          0.205518098763       -2.285606937634       -3.722215498632
 H          0.332976134038       -2.575074319587       -1.355049933747
 C          0.216386931295        1.769515213583        3.057969422853
 C          0.072870629741        0.029636720445        1.743131839468
 C         -0.168544809861       -0.460004302005        3.131808847477
 C         -0.028099415284       -0.786950982493        0.632601543846
 C         -0.019832260637       -0.473726552521       -0.771431649564
 C         -0.138403068241        0.845674703067       -1.327737438590
 C         -0.189247272200        1.017836934155       -2.686146652411
 C         -0.098178864184       -0.108051633661       -3.675140869404
 C          0.046899150818       -1.415649045285       -3.067113913638
 C          0.126791628853       -1.571083466017       -1.691322227161
 O         -0.378217553355       -1.591118348251        3.658134796388
 O         -0.106331761192        0.126236278616       -4.915766100565
