21
Frame 4
 N         -0.078343987818        0.678779509756        3.896119053585
 N          0.048543833373        1.470985096726        1.756185592311
 H         -0.087402299121        0.715201511496        4.879770665977
 H          0.043397296581        2.794560070512        3.445373456172
 H          0.174109585253       -1.828675513987        0.913838186832
 H          0.011467604200        1.669652702053       -0.547796054544
 H         -0.114452217074        2.049072304976       -3.115309661786
 H          0.101283791930       -2.296801914483       -3.756241645348
 H         -0.274915741166       -2.601124628344       -1.298615545834
 C         -0.064184030809        1.795781420754        3.011684060748
 C          0.115825512027        0.063886537593        1.729878487387
 C          0.010503874337       -0.495630759738        3.079134781071
 C          0.098584423953       -0.796201585842        0.609440776978
 C          0.042414564886       -0.539943779218       -0.772431845628
 C          0.039814709199        0.850585515611       -1.309325931661
 C         -0.063164999211        1.020918574724       -2.692901715225
 C          0.032555964320       -0.086194597743       -3.673608738313
 C          0.045650250462       -1.376980783974       -3.088058854753
 C         -0.059743204841       -1.605482624858       -1.735551445045
 O         -0.048575411990       -1.593474778680        3.615732502571
 O          0.026630481512        0.111087722666       -4.947316125496
