21
Frame 4
 N          0.005919551018        0.726129585230        3.855737329254
 N          0.306685228877        1.439618667004        1.745323953597
 H         -0.036493046566        0.693725442366        4.864431577056
 H          0.305702903906        2.807409411187        3.384335367054
 H         -0.058417306370       -1.799833513178        0.997238533749
 H         -0.376686033239        1.581644659848       -0.504585104264
 H         -0.338311910750        1.942273834435       -3.148747638076
 H          0.123848714586       -2.241191209824       -3.798888061031
 H          0.180287782969       -2.629976788755       -1.329472602913
 C          0.227442649372        1.772765626447        3.011661236653
 C          0.054041003019        0.102140476604        1.705943012418
 C         -0.170061373115       -0.474182814317        3.025615691073
 C          0.073859450552       -0.786175453559        0.608309467896
 C          0.097438139787       -0.495001669156       -0.751141290400
 C         -0.087691478564        0.856125144512       -1.246789648475
 C         -0.204648403848        0.981921423220       -2.613496337944
 C          0.009781232228       -0.057135778787       -3.629813610326
 C          0.159571770010       -1.420515526100       -3.065004747981
 C          0.094304777155       -1.572774677498       -1.711843272080
 O         -0.504772308581       -1.588594947836        3.439466611866
 O          0.138198657555        0.161628108157       -4.838280467126
