21
Frame 4
 N          0.056258946262        0.670426049087        3.874787084974
 N         -0.122091285913        1.456715651654        1.739355113424
 H          0.123819909809        0.730438456269        4.902296572548
 H          0.080714579041        2.804162985921        3.328069794511
 H         -0.123833723233       -1.821525939439        0.889332813361
 H         -0.251641651356        1.631032823022       -0.597607129172
 H          0.008941368895        2.049831813167       -3.084443862360
 H          0.138787113770       -2.241780755540       -3.762871932984
 H         -0.008606969578       -2.575627788629       -1.282211233492
 C          0.136159219881        1.759006366017        2.974983634325
 C         -0.072020473512        0.058574400871        1.716030355112
 C         -0.004264922394       -0.493457004656        3.071026665424
 C         -0.107261615464       -0.765743074888        0.592194863053
 C         -0.132121003524       -0.498112391822       -0.785200113801
 C         -0.046972562073        0.820567098484       -1.310731290042
 C          0.100148441529        1.074698163102       -2.669254886968
 C          0.075197973291       -0.058913101639       -3.580807754268
 C          0.209419442941       -1.396336481768       -3.016833983545
 C         -0.009565132749       -1.613531872828       -1.699966346966
 O         -0.017079506426       -1.651417134932        3.527892763523
 O         -0.033988149199        0.060991738547       -4.826041126658
