21
Frame 4
 N          0.006851825345        0.715962466765        3.833427849052
 N          0.080763307296        1.491460446855        1.720257625720
 H         -0.113232378359        0.697242524392        4.856605066666
 H          0.082394914919        2.761590323911        3.358296060906
 H         -0.179159027370       -1.824623144536        0.943139834908
 H          0.013899397119        1.662326924235       -0.665853104491
 H          0.001228749253        2.018712335377       -3.062964773213
 H          0.174630156416       -2.224831213058       -3.704086826949
 H          0.119365867207       -2.589410590900       -1.420999776073
 C          0.051422688355        1.781119946953        2.978144284303
 C          0.010744054065        0.063949164607        1.715966377562
 C         -0.030498380433       -0.503498667685        3.068836409819
 C         -0.072494801003       -0.793774981772        0.655028979845
 C         -0.062536477447       -0.528205834641       -0.723478250184
 C         -0.030451138140        0.781087591892       -1.315083386636
 C         -0.042554506732        1.031687008225       -2.670608090827
 C         -0.068332754443       -0.050402534893       -3.603969960418
 C          0.041657610817       -1.388997823959       -3.013670012723
 C         -0.009149855540       -1.607162371195       -1.652993774020
 O          0.064286264942       -1.629222360381        3.569029402204
 O         -0.038835516269        0.134990789808       -4.865023935452
