21
Frame 4
 N         -0.141071133565        0.765747632312        3.813078865492
 N          0.263013581692        1.278593506328        1.632524048278
 H         -0.271783255032        0.894476542473        4.834995169733
 H          0.085209978081        2.828086318859        3.055939221669
 H          0.077986044702       -1.959670687477        0.869524338707
 H         -0.003243716948        1.539407760416       -0.549844009317
 H         -0.163298325737        2.077138572579       -2.981059658727
 H          0.093389267740       -2.090553995619       -3.829646687692
 H         -0.013945940438       -2.645542930296       -1.302590632252
 C          0.130822706952        1.768233700451        2.893993438593
 C          0.162395363195       -0.091331300383        1.755011904983
 C         -0.047190026353       -0.487021743368        3.162886702991
 C          0.068808604246       -0.893977812024        0.662969331514
 C          0.000213948344       -0.549662475194       -0.739177639275
 C         -0.003759667584        0.776907897298       -1.267077166453
 C         -0.103364369103        1.037624415256       -2.593161058415
 C         -0.061462576479        0.009594526507       -3.610953350462
 C          0.084410697345       -1.360628591002       -3.049769006345
 C          0.003069482653       -1.614434828691       -1.693510088625
 O         -0.123129834481       -1.569643745701        3.743783885241
 O         -0.037070829230        0.286657237278       -4.807917609640
