21
Frame 4
 N         -0.168085526912        0.796699891772        3.809934318901
 N          0.162802483837        1.399762639532        1.658796562160
 H         -0.323413203932        0.997755959079        4.799878655022
 H          0.213201413261        2.832264041613        3.281868019269
 H          0.020185692267       -2.013974992165        1.026920024877
 H         -0.174061186414        1.371186695403       -0.418401537890
 H         -0.036579180777        2.062099617051       -2.877536847298
 H         -0.194088339239       -2.015245178872       -3.920132543210
 H          0.115606877417       -2.778899699430       -1.577693106563
 C         -0.015423733883        1.851552100065        2.882617790877
 C          0.086051576281        0.003566922833        1.730683527792
 C          0.018027837430       -0.401776778558        3.154132564075
 C          0.097164314146       -0.927427246939        0.668667025052
 C          0.041141926270       -0.638971158036       -0.725047957777
 C         -0.041372251270        0.676899338101       -1.232089220306
 C         -0.041647040583        1.028946350891       -2.554159163569
 C          0.028576879532        0.033443451707       -3.626684606879
 C         -0.064936564556       -1.331088850550       -3.109386287556
 C          0.024568048240       -1.693769046651       -1.791795368049
 O          0.108612609592       -1.498707264694        3.654889310596
 O          0.143667369295        0.245683207847       -4.835461159523
