21
Frame 4
 N         -0.173975337407        0.661362857572        3.909711617353
 N         -0.110458434156        1.464518234666        1.828475925743
 H         -0.029921385176        0.681187698937        4.894827688183
 H          0.014396024278        2.768376358129        3.467256716604
 H          0.182434033041       -1.812772257865        0.900953584602
 H          0.109756369439        1.696081858259       -0.715747555223
 H          0.053964114072        1.987596880318       -3.203354904731
 H         -0.084053095767       -2.275550907360       -3.767805134051
 H          0.030221129416       -2.557135528991       -1.337102023484
 C         -0.079499997266        1.761460664104        3.106300430847
 C          0.041189543605        0.070553360244        1.777899744338
 C          0.028751920050       -0.496500072332        3.117546634317
 C          0.126168912616       -0.712692574391        0.628095924350
 C         -0.018075514048       -0.466481043966       -0.773490079666
 C          0.065828001802        0.840786921046       -1.371765381886
 C          0.062733899080        1.020070641651       -2.735178403721
 C         -0.038470519431       -0.099859414969       -3.673092890481
 C         -0.117694414350       -1.401894599497       -3.017986133466
 C         -0.045253854433       -1.549478656211       -1.700153809995
 O          0.004795045403       -1.633823907362        3.597351439419
 O         -0.022836440769        0.054193488016       -4.932743389052
