21
Frame 4
 N         -0.127588484165        0.645087527935        3.931061087068
 N          0.126319293539        1.453278819824        1.824009445702
 H         -0.333194000149        0.649665387049        4.932460167255
 H         -0.206454605985        2.736384005679        3.414341369802
 H          0.169203463051       -1.790530664708        0.825020266658
 H          0.278368145454        1.710171480191       -0.791082809182
 H          0.168340928721        1.994664182774       -3.252764182942
 H         -0.294674678306       -2.248114127074       -3.668761329828
 H         -0.073482921650       -2.508501995539       -1.253280297441
 C         -0.185633600630        1.739837568950        3.076392225057
 C          0.110410965057        0.058635322693        1.812529442198
 C          0.074876937950       -0.513033643302        3.138420050168
 C          0.158672849039       -0.698566795030        0.638350386540
 C          0.078689391067       -0.419921995425       -0.733203860059
 C          0.056686919621        0.847822423587       -1.400436068195
 C          0.048906077460        1.025007402963       -2.784313854965
 C         -0.098970643349       -0.084404478614       -3.671587462819
 C         -0.126243116136       -1.395939565822       -2.994069247262
 C          0.048582297175       -1.534245351070       -1.672024471337
 O          0.222017479961       -1.682921963142        3.543968437887
 O         -0.094832697724        0.015626458083       -4.915029294305
