21
Frame 4
 N         -0.008115337476        0.646887470612        3.869797727722
 N         -0.315587189363        1.534877013486        1.813538452426
 H          0.309934172030        0.585386533685        4.827424008032
 H         -0.248402631417        2.764725221123        3.551648359458
 H         -0.002554143910       -1.711753471944        0.927488923485
 H          0.356925194328        1.653707858142       -0.687601960375
 H          0.123322508242        2.040943571649       -3.085253162814
 H         -0.185280632510       -2.340419391129       -3.600599797097
 H         -0.053832466814       -2.612596125637       -1.280132597056
 C         -0.230787948100        1.775897281519        3.098467524816
 C         -0.154137791861        0.135932047266        1.726863552809
 C          0.027565122390       -0.481347903063        3.011949987755
 C         -0.042899658712       -0.670427892288        0.587821097971
 C          0.039875679390       -0.438828555059       -0.811914835537
 C          0.158952506365        0.830833342814       -1.365524528709
 C          0.134393677560        0.995041762880       -2.729842010576
 C         -0.003932106929       -0.124891044022       -3.646671147695
 C          0.068221118920       -1.436533111444       -3.042143711126
 C          0.045208690695       -1.578942692640       -1.702248626026
 O          0.135369560919       -1.635953071052        3.401850283593
 O         -0.154238323746        0.067461155102       -4.864917541055
