21
Frame 4
 N         -0.009248026830        0.689254784196        3.898915469011
 N          0.015292492572        1.443175413482        1.761725788675
 H          0.288038938822        0.638930444437        4.887074985925
 H          0.353232375741        2.734841316786        3.519426276194
 H         -0.239108150163       -1.793672830045        0.895685475749
 H         -0.290229832120        1.691586383579       -0.745884094172
 H         -0.352823489201        1.975111963787       -3.166255324702
 H          0.208389911524       -2.262473742818       -3.773738997807
 H          0.146819166940       -2.477492926058       -1.246793739663
 C          0.107624621048        1.785079274738        3.030352539106
 C         -0.149107088412        0.058663441772        1.769617814746
 C         -0.171740929527       -0.501637145290        3.109037537584
 C         -0.106652127238       -0.746115703001        0.648874975815
 C          0.084844380666       -0.486213856557       -0.742835136996
 C          0.023653857579        0.854147856543       -1.356321523733
 C         -0.057798525770        1.000198499711       -2.727008218204
 C          0.040326474938       -0.119727813465       -3.693137704971
 C          0.151589126547       -1.425001382954       -3.060123620416
 C          0.182195264914       -1.520042976792       -1.695703007179
 O         -0.318476035248       -1.619937510935        3.613967538413
 O          0.093177593217        0.081326508883       -4.926877033375
