21
Frame 4
 N         -0.114166359437        0.750993496027        3.872704594750
 N          0.176935902515        1.395922505517        1.750077827985
 H         -0.316464026260        0.880371619737        4.835749315840
 H          0.454070254104        2.797976967099        3.285651505798
 H          0.151461289789       -1.936341843615        0.944399825903
 H         -0.077061675825        1.646676323424       -0.644752384838
 H         -0.329747464173        2.075681474730       -2.914736332771
 H          0.138797525691       -2.204083840193       -3.865011071162
 H          0.191826527543       -2.649404840180       -1.373367962022
 C          0.178403561669        1.793882670961        2.981675684539
 C          0.044651147356        0.012624746915        1.750911255931
 C         -0.135937258868       -0.462620517678        3.118233190531
 C          0.077284986229       -0.853872210117        0.627031481593
 C          0.048491766221       -0.555370454968       -0.753835569570
 C         -0.046294205210        0.761232258761       -1.308893589503
 C         -0.183973211575        1.041049313843       -2.638751183762
 C         -0.043163174241       -0.031562939296       -3.649932760731
 C          0.008634579246       -1.384401746531       -3.026814782606
 C          0.022052637807       -1.640742210478       -1.680757675044
 O         -0.311520928266       -1.622440696334        3.573333570109
 O          0.065718125686        0.184429922377       -4.882914940970
