21
Frame 4
 N         -0.215432980658        0.677996452053        3.884406763718
 N          0.282133472220        1.487228948170        1.839750188229
 H         -0.309712454989        0.682337297510        4.893042486109
 H         -0.154736969484        2.721019936409        3.535172685605
 H          0.235525734039       -1.815396012208        0.876962091715
 H          0.293667798359        1.713639871215       -0.792490598336
 H         -0.149593777718        2.003459494880       -3.178024439441
 H         -0.174132736257       -2.249601359399       -3.684549960401
 H          0.061684582216       -2.524012857642       -1.193487598268
 C          0.041151223437        1.749416470322        3.081051316945
 C          0.154291850354        0.051391330336        1.766813780586
 C         -0.065115991935       -0.514037672498        3.155093384650
 C          0.180371083744       -0.716693471023        0.621836191142
 C          0.179582188473       -0.455574453566       -0.800080386634
 C          0.234383838014        0.843087371557       -1.434087866734
 C         -0.047094311794        1.008259571752       -2.755148265808
 C         -0.105835662707       -0.109024824986       -3.692226753251
 C         -0.071583196558       -1.395413715626       -3.031637968298
 C          0.056999874309       -1.546885736250       -1.665391419850
 O         -0.183476799389       -1.662715478601        3.525099690475
 O         -0.243076763676        0.051518837596       -4.952103322153
