21
Frame 4
 N         -0.018693106407        0.675955948892        3.906627501748
 N         -0.237544432636        1.490420094907        1.786212669965
 H          0.166774803385        0.686265032846        4.890056658097
 H         -0.013621797974        2.797818506948        3.469117169704
 H          0.078382479432       -1.807356912224        0.935384005919
 H         -0.098505828769        1.627407139287       -0.626626563338
 H          0.044965352877        2.070253574962       -3.188155482420
 H         -0.052678766293       -2.239155546791       -3.798772913740
 H         -0.219700543049       -2.633986328980       -1.354090425583
 C         -0.068502645268        1.797086246885        3.057598867635
 C         -0.075451013344        0.064772045281        1.774649430387
 C          0.068879835275       -0.488748272624        3.118347410231
 C         -0.016379653743       -0.762679868634        0.642716616736
 C          0.033540813046       -0.485034031639       -0.768190842473
 C         -0.031809323628        0.834400905157       -1.352274597546
 C          0.050888593054        1.087063856205       -2.702026059819
 C          0.041710382773       -0.084960446948       -3.699827354928
 C         -0.037654305224       -1.396566954922       -3.061442034854
 C          0.009307646516       -1.591597852853       -1.683488763469
 O          0.130342785297       -1.638132508331        3.580346443257
 O          0.245748724678       -0.003224627425       -4.926161735511
