21
Frame 4
 N          0.161253042907        0.716686436136        3.859098026977
 N         -0.320922549312        1.437628513867        1.729223059709
 H          0.281111554634        0.672518725576        4.873042069801
 H         -0.292798177962        2.720810518920        3.384764298186
 H          0.053219124124       -1.795290350129        0.929454584675
 H          0.188555156337        1.592420004233       -0.677356217557
 H          0.152974805308        2.039374044190       -3.100407171437
 H         -0.106906620342       -2.210877770024       -3.770605251269
 H         -0.121445209188       -2.592723047364       -1.256796352705
 C         -0.158015804749        1.759933539394        2.984676557724
 C         -0.239470569312        0.045011918414        1.753969265652
 C          0.040819881567       -0.464747901770        3.106380774004
 C         -0.051636060299       -0.738634655932        0.645621761017
 C          0.005474890817       -0.515884546343       -0.765347562035
 C          0.127718484046        0.780285950037       -1.365129084207
 C          0.139474913138        1.002470356527       -2.700518628405
 C          0.062363885293       -0.065417682629       -3.656045267173
 C         -0.066044382777       -1.359501597850       -3.050830808423
 C         -0.011001972900       -1.609598487727       -1.671543105940
 O          0.162325698062       -1.580884043518        3.618827769185
 O         -0.007050089393        0.166420075990       -4.870478717777
