21
Frame 4
 N          0.053075240338        0.693840218879        3.898545582302
 N         -0.229312697029        1.471460802611        1.798851500083
 H          0.115653155510        0.715636530538        4.910283615565
 H         -0.068893021870        2.792856728405        3.477395623253
 H          0.171886648121       -1.850758286507        0.833787379425
 H         -0.081763991698        1.704367095636       -0.731043123329
 H          0.116574877044        2.030279178681       -3.063264022857
 H         -0.053765007300       -2.260666984915       -3.734733647310
 H         -0.214749685885       -2.668926799704       -1.378927114369
 C         -0.079349805784        1.787647082326        3.028411713216
 C         -0.084513551135        0.067843088164        1.772170541398
 C          0.054829061851       -0.445665211937        3.150615065352
 C         -0.043907133551       -0.772709307690        0.660059922223
 C          0.015543702832       -0.518632517367       -0.752214685925
 C         -0.022143153069        0.776185830293       -1.341167375967
 C          0.069116468147        1.017376288144       -2.703112556423
 C          0.110688122904       -0.060011082201       -3.673120510584
 C         -0.032106534247       -1.388869624773       -3.098495126465
 C         -0.082153971711       -1.621326542739       -1.751328654971
 O          0.145256142004       -1.588487259905        3.628951433662
 O          0.140035134528        0.118560774062       -4.931665558278
