21
Frame 4
 N         -0.223602398685        0.758137899969        3.761739342709
 N          0.195077901598        1.378881360801        1.642529578356
 H          0.122278956636        0.871154599019        4.703713129186
 H         -0.073423423933        2.860083367374        3.177466159400
 H          0.046915874834       -1.985329136121        0.906808225177
 H         -0.179676667320        1.570537037022       -0.499240819064
 H          0.054303958589        2.061424235106       -2.933162115934
 H          0.047958984742       -2.232299915251       -3.804837727239
 H         -0.022139827172       -2.689101749466       -1.336729864105
 C          0.023241118242        1.804440319856        2.873229439355
 C          0.146136062682       -0.029092599896        1.746958984857
 C         -0.007128045338       -0.464991720727        3.107928194319
 C          0.053645369259       -0.931018273786        0.659560199076
 C         -0.088881627385       -0.575507338332       -0.715703397719
 C         -0.076358004929        0.768922763185       -1.214358699419
 C         -0.038837401044        1.029294949302       -2.567822198261
 C          0.054657998209       -0.000844180440       -3.588302116045
 C         -0.033112717783       -1.381569617866       -3.085154910907
 C         -0.119532897992       -1.627011749027       -1.715992851994
 O         -0.009273725663       -1.578739851521        3.677374132203
 O          0.127750512452        0.392629600799       -4.796002683951
