21
Frame 4
 N         -0.210699846088        0.721150973903        3.835305501737
 N          0.051507973763        1.476091922436        1.795172373817
 H         -0.017906181447        0.751073706303        4.836582706298
 H          0.139196700740        2.816810769750        3.399480992776
 H          0.074921711308       -1.861391993285        0.909752333152
 H         -0.018285591584        1.588869170407       -0.579832880095
 H         -0.097523216902        2.081663925353       -2.954763171141
 H         -0.102464856258       -2.231737733391       -3.765276966771
 H          0.028241393964       -2.662667927339       -1.296440547448
 C         -0.054465832255        1.782442651378        3.024478414245
 C          0.097532845759        0.068637551362        1.701462130353
 C          0.002687650267       -0.460928478772        3.048985726198
 C          0.085762713194       -0.779246823279        0.599486697115
 C          0.039551177194       -0.519908675032       -0.786987066651
 C         -0.053470119497        0.766480290793       -1.314034108799
 C         -0.013522804541        1.011186012986       -2.657967081587
 C          0.017253717023       -0.059771376052       -3.645346959133
 C          0.037232405871       -1.415640743788       -3.051697256830
 C          0.045585372771       -1.629979314785       -1.716926888191
 O         -0.096685941817       -1.586704410597        3.518466284659
 O          0.045550728534        0.143570501648       -4.899900233702
