21
Frame 4
 N         -0.001571867045        0.662212951316        3.944109447412
 N         -0.097163344360        1.464680861353        1.858854867768
 H          0.114396103942        0.564038311925        4.908775282091
 H          0.013164316057        2.852159010065        3.499431896266
 H         -0.143912127586       -1.796417039102        0.901702894971
 H         -0.183787062169        1.682337731175       -0.755158681190
 H          0.114250321128        2.019405408377       -3.233098989139
 H          0.118404182986       -2.244651443717       -3.682020311453
 H         -0.154878840932       -2.611592121424       -1.379085044877
 C          0.014589086265        1.795031767373        3.138488923793
 C         -0.126434465836        0.092642393747        1.760465931352
 C          0.029918842545       -0.480434816638        3.066166082562
 C         -0.074015999527       -0.749643084578        0.653863293729
 C         -0.063781077839       -0.502579642423       -0.745486836129
 C         -0.096748778990        0.790139445052       -1.384407895233
 C          0.027324235159        1.019638269576       -2.728194279805
 C          0.138205710986       -0.069715934742       -3.683545217571
 C          0.061403084284       -1.378763089073       -3.039328488466
 C         -0.037969310586       -1.573943529475       -1.690984733598
 O          0.265142686504       -1.562028450511        3.542644047817
 O          0.083464305012        0.027483001725       -4.953192190302
