21
Frame 4
 N          0.104664256122        0.746999501360        3.919741407417
 N         -0.310421508060        1.437737077860        1.805398933421
 H          0.363307491877        0.790076947833        4.865029809662
 H         -0.291517749314        2.734915607040        3.500604219019
 H         -0.006828599220       -1.875308983668        0.850343034223
 H         -0.081943632273        1.748352413006       -0.765739993339
 H          0.195417581559        2.022351333495       -3.024412816995
 H         -0.144034038316       -2.285718359736       -3.685476035687
 H         -0.282295839492       -2.546225442449       -1.351247929711
 C         -0.128652932359        1.766885998997        3.057044931133
 C         -0.098308852146        0.022965775361        1.763909080365
 C          0.161472886913       -0.496125032008        3.132802758631
 C         -0.082795972678       -0.788880272887        0.637300055498
 C         -0.144081087059       -0.472320314611       -0.749730212815
 C         -0.136759076358        0.835854809203       -1.355563776592
 C          0.078675464282        0.992316611386       -2.713966815659
 C          0.191541413443       -0.087028351029       -3.695896537308
 C          0.014428244543       -1.411912275580       -3.070573554136
 C         -0.184152486581       -1.576574827378       -1.743413081250
 O          0.355384319118       -1.636008201102        3.550898673429
 O          0.426900116002        0.077645984908       -4.927052149304
