21
Frame 4
 N         -0.024832068776        0.705982443682        3.825671362102
 N          0.201534985754        1.432909068012        1.716453011667
 H         -0.188316586524        0.735665901098        4.818985176953
 H          0.229434992127        2.815285358136        3.272151011736
 H          0.064476770667       -1.891640283143        0.870754516008
 H          0.062189344825        1.596516713925       -0.543386251146
 H         -0.219803751313        2.027674437982       -3.007539869551
 H          0.132056535461       -2.184645707744       -3.780755632468
 H          0.224464341303       -2.578161412460       -1.281717944708
 C          0.108335497972        1.824649448167        2.972974580580
 C         -0.007480178728        0.048395722301        1.699641404632
 C         -0.176446748446       -0.478523459150        3.105064507726
 C          0.060699639794       -0.818495079446        0.605414318590
 C          0.175646930448       -0.536476737468       -0.756961956973
 C          0.014378793389        0.806413063079       -1.271129124263
 C         -0.123421897094        1.018858129855       -2.608215501679
 C         -0.103882794893       -0.057755709786       -3.623740879142
 C          0.012290806016       -1.397654409202       -3.042033589539
 C          0.100894333946       -1.600208386795       -1.688418794655
 O         -0.370773248804       -1.614651529692        3.554230302479
 O         -0.171445697123        0.145862428648       -4.837440648347
