21
Frame 4
 N          0.003711197381        0.644816348156        3.894329322137
 N         -0.068893917845        1.462793003723        1.821532558146
 H          0.064986740428        0.615423779710        4.900616657789
 H         -0.262957406337        2.748895690350        3.485562902869
 H          0.047934635139       -1.793320747393        0.808265361786
 H         -0.024439772445        1.700765337691       -0.731975798890
 H          0.134268147807        2.048605748533       -3.203856477790
 H         -0.114379317864       -2.272952817315       -3.713169904371
 H         -0.142654546285       -2.587603398098       -1.251817610996
 C         -0.061928287851        1.774654756522        3.082577941809
 C         -0.017699523965        0.074174670573        1.706815289665
 C          0.092515944068       -0.498113225469        3.094809342980
 C         -0.035186499382       -0.707464971996        0.596665724678
 C         -0.067869119091       -0.443782084857       -0.795323603514
 C         -0.131142558976        0.855102857052       -1.386165705072
 C          0.105435936334        1.051863476932       -2.719962149078
 C          0.145708024635       -0.124006198939       -3.640132154223
 C         -0.202176470413       -1.414085595052       -3.039247097834
 C         -0.224254920571       -1.551331610460       -1.655191922954
 O          0.402180042089       -1.600552790717        3.621345021952
 O          0.356841673142        0.016117771053       -4.875677699088
