21
Frame 4
 N         -0.079220070634        0.673533267865        3.848645260247
 N          0.104459819955        1.450024954287        1.761556326527
 H         -0.395628598271        0.595763310956        4.815789703643
 H         -0.220010901331        2.862359159475        3.250475608893
 H          0.247968211303       -1.838279796471        0.882732486493
 H          0.221532382684        1.726379774046       -0.639115702922
 H          0.254594274232        1.998642460607       -3.031670002045
 H         -0.116071306715       -2.210766805359       -3.705248848172
 H         -0.020868681523       -2.613666752322       -1.261928942276
 C         -0.048696129268        1.791054046912        2.979265719766
 C          0.183654071615        0.079828043811        1.684282845690
 C         -0.005681236019       -0.488651683275        3.019059469462
 C          0.298260868920       -0.789123386021        0.600252359544
 C          0.130943031708       -0.507132594818       -0.777089176843
 C          0.197025902256        0.846498172127       -1.258203264234
 C          0.035529113106        1.030016201335       -2.614681227756
 C         -0.201515540764       -0.069216385735       -3.559030963743
 C         -0.042344155182       -1.386373227724       -3.012061626375
 C          0.000289320954       -1.599225732256       -1.664560033184
 O         -0.077291471643       -1.624470651798        3.444390855351
 O         -0.466928905382        0.072807624361       -4.762860848068
