21
Frame 4
 N          0.199025265438        0.693112972573        3.905526944061
 N         -0.067043431837        1.443876232034        1.772396849523
 H          0.144118457854        0.659516175221        4.952848562765
 H         -0.042242161992        2.855966511414        3.414341414691
 H          0.018294822775       -1.853265847464        0.811978457276
 H         -0.173241531775        1.601657679837       -0.665363300276
 H         -0.023775245081        2.011024090571       -3.180895062361
 H          0.082657864632       -2.202997988690       -3.790120138987
 H         -0.038890764765       -2.581834389773       -1.246545786151
 C          0.068330916339        1.816171327317        3.035612559967
 C         -0.076364717081        0.058602108995        1.747830020283
 C          0.014831804738       -0.497329278042        3.156451171729
 C         -0.077074293298       -0.769951763511        0.622933813510
 C         -0.144085724454       -0.474372514778       -0.795572024227
 C         -0.109744726658        0.817699900086       -1.367583098059
 C          0.028149300423        1.027863580485       -2.711787094351
 C          0.132674335347       -0.097493521280       -3.634229995299
 C          0.049580924106       -1.382582712302       -3.086690565558
 C         -0.022464432353       -1.611858837367       -1.726545534434
 O         -0.108451092945       -1.630369259234        3.655709093866
 O          0.145714430587        0.116565533906       -4.870296287969
