21
Frame 4
 N         -0.107900012483        0.708768807042        3.907610489351
 N          0.101288368959        1.465378955625        1.794639235930
 H          0.138280319079        0.658567492455        4.893342153800
 H          0.062937960951        2.788843373164        3.452312127864
 H         -0.125783433026       -1.770743263132        0.814409217781
 H          0.017970175135        1.636732446133       -0.724907992244
 H         -0.215601738649        2.040962680359       -3.001604392295
 H          0.009983135613       -2.305534394475       -3.762318681293
 H          0.170293765312       -2.609978477792       -1.310344952055
 C          0.075982255858        1.786707965568        3.064938040905
 C         -0.005647518688        0.108746409680        1.739857397742
 C         -0.147058850171       -0.443681691958        3.085376629140
 C          0.002691009863       -0.708863278318        0.600405945340
 C          0.118721447758       -0.504720444171       -0.784102221892
 C          0.053038992209        0.773441138104       -1.358703323509
 C         -0.149937064650        1.007245304869       -2.672500145489
 C          0.005259059226       -0.084080818966       -3.634301308479
 C         -0.025743045257       -1.468346352339       -3.052064867714
 C          0.113426286870       -1.638933326969       -1.707828420561
 O         -0.184083168178       -1.601382542526        3.536013534254
 O          0.091882054271        0.160870017648       -4.880228466576
