21
Frame 4
 N          0.073023929055        0.656112490917        3.924520123316
 N         -0.220708035372        1.410895386060        1.812889103596
 H          0.055849359140        0.751747996696        4.924678961178
 H         -0.172840664844        2.738555083301        3.498671895650
 H          0.049974947508       -1.778829225174        0.815070693576
 H          0.056686509510        1.814655656203       -0.776774212976
 H          0.257990195120        1.991001418162       -3.211108765578
 H         -0.003139970150       -2.370399199053       -3.636025748164
 H         -0.181104623921       -2.532639282350       -1.238805368856
 C         -0.118498087795        1.736205433639        3.091635768229
 C         -0.088985086966        0.040543562121        1.769767799741
 C          0.135121980369       -0.542602370573        3.109969550216
 C         -0.087307124824       -0.727613560899        0.585909090145
 C         -0.078842365782       -0.386725271182       -0.811995393408
 C         -0.007962372645        0.917217835681       -1.372209251197
 C          0.072412228996        1.042828819542       -2.708132534994
 C          0.009097738053       -0.109421436203       -3.670220795962
 C         -0.014839244539       -1.480621724993       -3.050285676620
 C         -0.111978897791       -1.558201395586       -1.667908749191
 O          0.303861353695       -1.703300554515        3.523732667125
 O          0.072188233182        0.090590338206       -4.913379155826
