21
Frame 4
 N         -0.100614453019        0.759244708868        3.837064823514
 N          0.332453732202        1.450500947534        1.715375475200
 H         -0.629201920319        0.701530793707        4.689274841950
 H          0.170076766431        2.881501991413        3.322963720814
 H         -0.037574418663       -1.863951632239        0.982151095243
 H          0.136626433473        1.561295475077       -0.516650018656
 H         -0.170022134361        1.997515322280       -2.993069858656
 H          0.042120092916       -2.203046666332       -3.745943376007
 H          0.155911102385       -2.643835375867       -1.366936276459
 C          0.061229296924        1.815466571496        2.951235279547
 C          0.230253242035        0.028466721858        1.689879942962
 C         -0.062095067934       -0.483969698266        3.050568701885
 C          0.151098281511       -0.807716524353        0.619280658044
 C          0.218802333297       -0.561969821688       -0.748584337334
 C          0.059148982565        0.796507908141       -1.244471970944
 C         -0.067409966990        0.997846973009       -2.607824114603
 C         -0.161061139609       -0.042858112090       -3.604066830067
 C         -0.072881546845       -1.404322655583       -3.031659679016
 C          0.112097527006       -1.625403294669       -1.694029719253
 O         -0.100339750131       -1.603744009870        3.507882419852
 O         -0.268617392873        0.250940377575       -4.812440778015
