21
Frame 4
 N          0.060007943921        0.627859808717        3.920953206018
 N         -0.001761592697        1.523895135402        1.825490855412
 H          0.032294605905        0.516230689523        4.909675035547
 H          0.159352035046        2.782740003722        3.544631257677
 H         -0.193938631228       -1.820826903874        0.734458083980
 H         -0.143139852203        1.702232932820       -0.710828961816
 H         -0.054747177954        2.030394803681       -3.216914453542
 H          0.173211567549       -2.292343649058       -3.570550658247
 H          0.197453823975       -2.524022482138       -1.163061039409
 C          0.095242780156        1.785809752833        3.093653181771
 C         -0.050087507299        0.111277459054        1.735328332928
 C         -0.028945007431       -0.477185451775        3.074241330538
 C         -0.115450266622       -0.708564253951        0.584898468470
 C         -0.087331864161       -0.419589095224       -0.787048049370
 C         -0.120936468232        0.874085698123       -1.428144851107
 C          0.041938071603        1.041737359623       -2.774918827564
 C          0.036824700599       -0.129234830918       -3.703660250112
 C          0.053499963399       -1.446763567952       -3.017467787620
 C          0.005321570172       -1.562329333931       -1.630892146401
 O         -0.063119272140       -1.643745454878        3.557900971599
 O          0.004310577641        0.028341380201       -4.977743698751
