21
Frame 4
 N          0.091623533384        0.714955870443        3.776521490600
 N          0.030289287561        1.428431731882        1.661381173974
 H          0.265219954710        0.630532911647        4.772271059837
 H          0.359246807890        2.783350697337        3.278843832442
 H         -0.404944352061       -1.901658661685        0.846425139442
 H         -0.443920108291        1.683510675226       -0.565182621408
 H         -0.075775907527        2.017162792378       -3.028868093272
 H          0.526130792233       -2.216049706464       -3.699223429105
 H          0.115206596828       -2.571797141237       -1.253122379169
 C          0.198494857808        1.773761527586        2.904283313485
 C         -0.068569931455        0.038170576041        1.695382337968
 C         -0.091479722019       -0.489637381489        3.056812329279
 C         -0.277363523454       -0.819682351875        0.606707833390
 C         -0.178132928196       -0.468789922902       -0.733328515414
 C         -0.207139523188        0.838593473541       -1.225585606762
 C         -0.032611542077        1.007791704406       -2.605758417296
 C          0.030340511685       -0.079981423680       -3.577891007722
 C          0.308713005003       -1.362161236317       -3.016601780319
 C          0.097903483294       -1.539768142508       -1.678078748647
 O         -0.203770164128       -1.578458746837        3.599874299441
 O         -0.039461128000        0.111722754505       -4.814862210745
