21
Frame 4
 N         -0.014784306038        0.729802855964        3.831289680795
 N          0.118713875095        1.470651268251        1.705767545099
 H         -0.176356952570        0.842036714273        4.823253025501
 H          0.076560775040        2.771844290844        3.404594248763
 H         -0.053435021258       -1.859152131261        0.995875567870
 H          0.022692827126        1.537012964391       -0.563265264977
 H         -0.108244751364        2.042023794816       -3.040672548260
 H         -0.010626650979       -2.189779561715       -3.823696094089
 H          0.096221864818       -2.626602826379       -1.325613302237
 C          0.098935926601        1.787102494633        2.963932705633
 C          0.015716597417        0.032139032554        1.732099330890
 C         -0.115928641373       -0.472265404425        3.101713898708
 C          0.095553992930       -0.812715348714        0.632104151828
 C          0.096425686373       -0.556524017517       -0.759590964985
 C          0.048112995049        0.771400324473       -1.296028292395
 C         -0.039553545785        1.002885210756       -2.632246207374
 C         -0.035136694581       -0.035081832468       -3.631981353401
 C          0.133393293425       -1.398359907698       -3.098366163747
 C          0.148151670828       -1.632747478359       -1.734781485020
 O         -0.170359526875       -1.615158109940        3.582184401591
 O         -0.226053413879        0.211487667521       -4.866572880192
