21
Frame 4
 N          0.090951270249        0.730518023104        3.852595680013
 N         -0.246708980968        1.382915334161        1.748627807496
 H         -0.088602980350        0.707837276910        4.840570188658
 H         -0.588446454515        2.713929893896        3.333259330830
 H          0.136414465375       -1.874013300313        0.890222176337
 H          0.431486910331        1.665605717067       -0.626411269199
 H          0.287681173826        2.040136519430       -3.247691995662
 H         -0.464163464615       -2.223053932184       -3.700894829742
 H         -0.097499041249       -2.609378924267       -1.275594561555
 C         -0.277974402419        1.721897707590        2.993306348006
 C          0.043567750062        0.016225176004        1.752398085273
 C          0.132408025135       -0.471634145268        3.131060068630
 C          0.128783514133       -0.801517891270        0.622357069601
 C          0.081578015022       -0.474489076551       -0.743341030647
 C          0.265683989939        0.858172115287       -1.335456098345
 C          0.136672832781        1.075845584246       -2.711949764337
 C         -0.033004690218       -0.034633492583       -3.632561571060
 C         -0.266166930699       -1.355892322835       -2.999981094837
 C         -0.140401042153       -1.586541838943       -1.647929623629
 O          0.423220033326       -1.596963584739        3.612170643422
 O          0.044520007008        0.115035161259       -4.854755559255
