21
Frame 4
 N         -0.215304570466        0.690921449602        3.733575310410
 N          0.304029633443        1.383688217330        1.713521673543
 H         -0.426988481733        0.608816921177        4.748700008767
 H         -0.123423810113        2.798031821473        3.225355222564
 H          0.224803923074       -1.855043083347        0.822812356286
 H          0.324384995629        1.678029319548       -0.593680604250
 H         -0.105709878155        2.070292768894       -3.112154191375
 H         -0.181286712648       -2.255421906748       -3.611638989045
 H          0.114172621903       -2.576114229433       -1.199197593526
 C         -0.020113587065        1.758823567322        2.896357941206
 C          0.335909613213       -0.005554463531        1.745454685215
 C         -0.074791288604       -0.475462967156        3.034754361782
 C          0.203527965034       -0.790271259723        0.621325528014
 C          0.239978071164       -0.466086261635       -0.767659929429
 C          0.218642886288        0.856757581553       -1.273774939700
 C          0.027876179154        1.040240420877       -2.632989197675
 C         -0.178077015625       -0.060971784817       -3.538267432544
 C         -0.055697208261       -1.408701935913       -2.955256455698
 C          0.151734393460       -1.590951782207       -1.636834007563
 O         -0.294770106525       -1.600085963408        3.522745996201
 O         -0.468897623165        0.199063570144       -4.743149743184
