21
Frame 4
 N         -0.057283906658        0.706818195988        3.883016006328
 N          0.161292625465        1.475130937364        1.788242928737
 H         -0.523311061061        0.613816407467        4.809782334566
 H          0.118765655487        2.824627811892        3.432451514073
 H          0.248568030904       -1.830379172850        1.009236958790
 H          0.060755982354        1.664997531121       -0.692288191723
 H         -0.123146159618        2.025171337493       -3.070773928417
 H         -0.210166468801       -2.197979303576       -3.790683284570
 H          0.030075683967       -2.595898764730       -1.333884110320
 C          0.029394004120        1.771472650955        3.050120940674
 C          0.096389760233        0.085947330972        1.730835961324
 C         -0.096928047160       -0.443789247838        3.071296686062
 C          0.247801704144       -0.796734011233        0.663870307696
 C          0.244151947047       -0.538484313030       -0.746469101414
 C          0.169618151274        0.772982392068       -1.330455244465
 C         -0.035763393440        0.998328514894       -2.683854637609
 C         -0.099707473106       -0.066600984399       -3.666270683423
 C         -0.022662212154       -1.417014812932       -3.072121744747
 C          0.138275637142       -1.603197409744       -1.744756498005
 O         -0.158176411337       -1.560969498104        3.577884427513
 O         -0.217944048803        0.111754408222       -4.885180641070
