21
Frame 4
 N          0.106377769172        0.680810421559        3.878271178756
 N         -0.153734384241        1.485860496999        1.789338172426
 H          0.286487581568        0.712086881863        4.865529032479
 H         -0.215314494219        2.754614413514        3.514412215768
 H         -0.079276501096       -1.821190115505        0.857667398425
 H         -0.148885515501        1.671231948579       -0.676214999955
 H          0.061067080209        2.014601814375       -3.189448364782
 H          0.199051049702       -2.201435730267       -3.722618692024
 H         -0.325684454990       -2.671551648112       -1.211107812883
 C         -0.036886684187        1.787320465876        3.048420630069
 C          0.017047873783        0.091823615462        1.731313252556
 C          0.143902343975       -0.480202503194        3.059444589218
 C         -0.068090072463       -0.741075646029        0.584329136197
 C         -0.150807262786       -0.487190479641       -0.779063992034
 C         -0.087814621160        0.820061823804       -1.377843140767
 C         -0.059788552892        1.052669917165       -2.723492186237
 C          0.119713195627       -0.083836624419       -3.616308792124
 C         -0.099527785716       -1.431378757387       -3.008450354871
 C         -0.220224248632       -1.639417163354       -1.657852567876
 O          0.228008428490       -1.636767769995        3.429777555967
 O          0.484379255357        0.122964638709       -4.796102258308
