21
Frame 4
 N          0.247365563660        0.685378445615        3.783639789939
 N         -0.262383210890        1.426541901643        1.733737613905
 H         -0.040139608953        0.769449609794        4.733917618548
 H         -0.155414792336        2.735353291383        3.412240753013
 H         -0.091024964517       -1.830526358980        0.838487707699
 H          0.129241980220        1.642618297772       -0.613750560529
 H          0.057210242675        2.090166626072       -3.073787659411
 H         -0.121529257795       -2.273026392995       -3.679035685767
 H         -0.042798883419       -2.550522507114       -1.160988751838
 C         -0.141445245623        1.772008767067        2.988163056655
 C         -0.079151709496        0.068240175928        1.693946264363
 C          0.090819726018       -0.509892728488        3.029941421145
 C          0.031072310358       -0.761438542956        0.606782112798
 C          0.012265717672       -0.508160715565       -0.736241117947
 C          0.094743087962        0.832125150979       -1.302307960151
 C          0.042717417941        1.055965128409       -2.654903897618
 C          0.023648073318       -0.067811974110       -3.589953239331
 C         -0.066760948945       -1.385627946924       -2.991900359436
 C         -0.092222114783       -1.595307055497       -1.628595224397
 O          0.211457759947       -1.685035854822        3.433559192323
 O          0.152328856987        0.089502682789       -4.822951073964
