21
Frame 4
 N         -0.128174445361        0.661107745323        3.885327349118
 N          0.134435277705        1.486349398065        1.852830692269
 H         -0.012997474394        0.669647030799        4.892223210909
 H         -0.158242480064        2.797932155819        3.496064045316
 H          0.227961128410       -1.792926945858        0.823751408807
 H          0.087821747489        1.691729594574       -0.725172631954
 H          0.049079329505        1.995570896572       -3.139517058257
 H         -0.184324242805       -2.249404640155       -3.708483937319
 H         -0.085673038886       -2.557129833320       -1.272977416157
 C         -0.128686558104        1.780736926889        3.108680291313
 C          0.132599359130        0.099430218517        1.716867534610
 C          0.025370141821       -0.496077180100        3.081528438008
 C          0.142978188988       -0.733585807216        0.595837400788
 C          0.032488153222       -0.496036790815       -0.784455495919
 C         -0.044053810126        0.803957644939       -1.347754138409
 C         -0.055829037197        0.979522349504       -2.728818776447
 C          0.008285496722       -0.115522615593       -3.667900015676
 C         -0.072418860050       -1.418912861701       -3.047116910862
 C         -0.037378509377       -1.570830470457       -1.690973801197
 O         -0.039895984139       -1.632401428577        3.573586221509
 O          0.106655617510        0.096844612790       -4.913526410450
