21
Frame 4
 N          0.000164029002        0.709763309862        3.902406324877
 N          0.032215492694        1.515572600813        1.805697148624
 H         -0.055353463937        0.627905348854        4.900822156992
 H          0.159281120062        2.840096086716        3.447823599855
 H          0.022422536902       -1.844959638786        0.873728099303
 H          0.101929749003        1.668974569741       -0.706908936917
 H         -0.177822024286        2.037960403734       -3.118555767393
 H          0.102074557051       -2.254779611195       -3.766824649264
 H          0.165145821445       -2.635485757912       -1.302247384886
 C          0.075586043895        1.825093332507        3.090280200675
 C         -0.058250578509        0.075309067681        1.710845147263
 C         -0.049390416529       -0.462912997419        3.100649460958
 C          0.018460321351       -0.779676009085        0.613953479786
 C         -0.027810217979       -0.539258933301       -0.753215475767
 C         -0.050431211670        0.784324762316       -1.331906455555
 C         -0.093929207048        1.002647024047       -2.687606569925
 C         -0.057045372898       -0.072153619368       -3.631147687936
 C         -0.029898518360       -1.457339140448       -3.077265933261
 C          0.038333013263       -1.575406051168       -1.727107902356
 O         -0.196617812963       -1.604455483979        3.528325329480
 O          0.080936139511        0.138780736390       -4.871744184552
