21
Frame 4
 N          0.252659093323        0.721183749938        3.844142174165
 N         -0.106704167962        1.343743148339        1.706916551036
 H         -0.080737795035        0.767519395054        4.796723211810
 H         -0.022913173424        2.803039949169        3.320815613394
 H         -0.224519339938       -1.871713954080        0.795408683177
 H         -0.306839364421        1.707683743635       -0.634913034653
 H          0.175503090420        2.058873549055       -3.078358375645
 H          0.088107797386       -2.247958605514       -3.759122825823
 H         -0.091072510605       -2.598407409611       -1.215639128799
 C          0.047069300307        1.764657959610        2.941491937124
 C         -0.048103717212       -0.030717453404        1.748206543286
 C          0.093826541036       -0.476079989365        3.123135644976
 C         -0.107460156924       -0.829294049860        0.621850056146
 C         -0.114740770794       -0.489267193299       -0.759848810225
 C         -0.115044851954        0.812786980017       -1.278529165166
 C          0.081455856231        1.026701931532       -2.629902914906
 C          0.118765785586       -0.065674476956       -3.584575707603
 C          0.045305564785       -1.410530600456       -3.087922178474
 C         -0.003469269764       -1.598766800428       -1.716379503979
 O          0.234217969329       -1.594094201916        3.650866506359
 O          0.084694119628        0.206314328541       -4.804365276202
