21
Frame 4
 N          0.034810028424        0.677028010438        3.885570226031
 N          0.014730777229        1.423356127825        1.813766579631
 H          0.139830870127        0.636050490149        4.888789988406
 H          0.281761569991        2.783185478136        3.287533468481
 H         -0.119563943047       -1.830861964453        0.835706799705
 H          0.021959726976        1.712163026680       -0.665885847873
 H         -0.106448498647        1.995753100458       -3.144689879984
 H          0.259745164047       -2.269526417472       -3.671467373769
 H          0.393133222110       -2.578177588459       -1.291813327880
 C          0.187140538746        1.728934270437        3.038596120734
 C         -0.161693612280        0.027743852146        1.769011689201
 C         -0.158335541395       -0.484826074487        3.127633585946
 C         -0.123639235081       -0.743526359043        0.634461608216
 C         -0.035199905384       -0.428162078676       -0.756743234777
 C         -0.136831422121        0.873828240800       -1.353563452474
 C         -0.204568030331        1.012513374984       -2.692935743059
 C         -0.044409832283       -0.074247228022       -3.668914822203
 C          0.052173412220       -1.400070540423       -3.052915753129
 C          0.127243529929       -1.573123895482       -1.697659255387
 O         -0.373457165244       -1.601952278830        3.644623024670
 O         -0.048381653985        0.113918453294       -4.929104400485
