21
Frame 4
 N          0.062934584623        0.662199745388        3.918825294932
 N         -0.184744822599        1.424639846077        1.827647087836
 H          0.291750265367        0.595791716866        4.891790742649
 H         -0.199828402844        2.774013688114        3.441632549963
 H         -0.136788451833       -1.815554978825        0.785371296571
 H          0.070936835063        1.728994358281       -0.693075673930
 H          0.024466895754        1.993136189885       -3.232907678556
 H         -0.016738239377       -2.294328599618       -3.700805606933
 H         -0.149285921089       -2.521011000635       -1.175008457491
 C         -0.129622711333        1.757641325195        3.069584270548
 C         -0.147775697618        0.013008659066        1.770974583762
 C          0.017040491661       -0.491793132446        3.126494153681
 C         -0.036908185967       -0.730073337025        0.606418801728
 C         -0.089642253137       -0.407483520640       -0.747602979960
 C          0.059334570459        0.893740241744       -1.384457601152
 C          0.082249365365        1.007440781316       -2.794109743214
 C          0.081174618410       -0.131344214630       -3.668723928738
 C         -0.008096034282       -1.399826523558       -3.018325208219
 C         -0.045621071183       -1.500371751194       -1.672731043477
 O          0.269877592674       -1.613112545574        3.561679393260
 O          0.185286571886        0.054293052213       -4.912670253261
