21
Frame 4
 N          0.056619346947        0.676667065838        3.787264645803
 N          0.045553454845        1.413463288377        1.667900925657
 H          0.284966418450        0.749166015004        4.758963381929
 H          0.373487091300        2.755475282250        3.241822092428
 H         -0.188356337472       -1.874473316370        0.850528342269
 H         -0.283678182523        1.678903931088       -0.628372967804
 H         -0.152979990178        2.075970599463       -3.028294287274
 H          0.577037068667       -2.205454772254       -3.563827018242
 H          0.030026998643       -2.590047332468       -1.203116011180
 C          0.195967949296        1.731415534269        2.905714697103
 C         -0.140848457004       -0.025033361105        1.651754437093
 C         -0.133250625862       -0.510286175261        3.064432675878
 C         -0.306791079620       -0.845954857532        0.600992478467
 C         -0.179511680627       -0.498483914756       -0.746644816176
 C         -0.213112616313        0.848320464527       -1.309292735347
 C         -0.100384090346        1.055389797080       -2.664013351431
 C          0.129093755232       -0.035443996562       -3.573160678624
 C          0.316525101777       -1.355195619638       -2.957168921281
 C          0.024873914233       -1.575669930086       -1.632450242271
 O         -0.250635959172       -1.632653119387        3.567768723077
 O         -0.084602080274        0.163924417521       -4.790801370073
