21
Frame 4
 N         -0.220651043415        0.704476622771        3.861576535953
 N         -0.061095316743        1.446510154927        1.759256488641
 H          0.175513439067        0.690569919799        4.795795159969
 H          0.052555106709        2.792689101940        3.337272235683
 H          0.090082432406       -1.808882262486        0.920684327889
 H          0.048623084443        1.610675197789       -0.629940691942
 H         -0.128406938325        2.048160389112       -2.949005477579
 H         -0.181135890499       -2.279194367134       -3.647401816357
 H          0.091152900662       -2.619833715726       -1.383501227313
 C         -0.064286949998        1.782365135829        3.004866442215
 C         -0.031731555086        0.042616041012        1.704786542255
 C         -0.177373577763       -0.443244270005        3.053328869911
 C          0.126356590590       -0.793059525344        0.595196417884
 C          0.169194327470       -0.520477324012       -0.778892685336
 C          0.181974708176        0.804566288554       -1.301415565540
 C          0.064802515198        1.036969731814       -2.625165987237
 C         -0.004459139078       -0.073912532130       -3.638647762138
 C         -0.046004828643       -1.413338961526       -3.020832916265
 C          0.141129975529       -1.570594106966       -1.706130123111
 O         -0.134258910814       -1.583651174585        3.514546532084
 O         -0.091980929885        0.146589656366       -4.866375299668
