21
Frame 4
 N          0.006398605477        0.744985379641        3.914555222134
 N         -0.143180482765        1.446902038353        1.760081992531
 H          0.028500342568        0.733309877291        4.920537124736
 H         -0.347157089451        2.744711146954        3.358485022595
 H          0.012023597367       -1.919374457128        0.740207838226
 H          0.254655726089        1.645592871845       -0.679027068644
 H          0.264911125722        2.064058663207       -3.088595821933
 H         -0.119348604330       -2.308733054626       -3.705807382714
 H          0.010223177912       -2.561489758468       -1.174632167515
 C         -0.055881484888        1.776746890302        3.014934357690
 C         -0.024156416016        0.021889991444        1.714001489923
 C          0.007316560916       -0.449492082494        3.133114287935
 C          0.081423176956       -0.812783305547        0.578233828247
 C          0.115918287256       -0.476848114036       -0.802629856369
 C          0.162056143877        0.845617843748       -1.349681100002
 C          0.146386383355        1.035253240586       -2.686750989270
 C         -0.123776156918       -0.045159706606       -3.626883869039
 C         -0.007326666609       -1.402771742043       -3.030734154414
 C          0.055265307260       -1.590488208949       -1.677723981115
 O          0.041535410862       -1.637342408198        3.514956183653
 O         -0.365786944639        0.145414894723       -4.826640956656
