21
Frame 4
 N         -0.028128588060        0.670091022301        3.911068604326
 N          0.158318609438        1.562601529325        1.844886619861
 H         -0.254052161721        0.593622218189        4.932958504449
 H         -0.013184440667        2.793992081747        3.559756669707
 H          0.034121896752       -1.722524094864        1.049432799260
 H          0.027216381392        1.721674961715       -0.701403901397
 H         -0.013233871010        1.983907990807       -3.156463486532
 H          0.057057699844       -2.241111341023       -3.886975360486
 H          0.091647007248       -2.626003198683       -1.274992960926
 C          0.127835920701        1.795912032082        3.129277333942
 C          0.055776710752        0.131981448368        1.725496209308
 C         -0.037314852093       -0.448811526126        3.073949257535
 C          0.074319226759       -0.717610754195        0.591793625934
 C          0.070238079536       -0.483483461050       -0.787651589749
 C          0.019693923566        0.821301224725       -1.356207160783
 C          0.054421522329        0.952790083269       -2.712495588477
 C         -0.085527282537       -0.130209957497       -3.672943631657
 C         -0.001884395598       -1.474291890581       -3.061705629694
 C          0.072503739199       -1.596305024198       -1.723507398953
 O         -0.151851904986       -1.650073582607        3.421444651754
 O         -0.257973220846        0.062550238298       -4.905717567423
