21
Frame 4
 N         -0.388857371121        0.703909011666        3.867199342002
 N          0.242672341996        1.494467925289        1.798079870478
 H         -0.109028505157        0.668466039963        4.813295132717
 H         -0.102671341546        2.830021267000        3.511092622471
 H         -0.008701051112       -1.810899161477        0.903695786764
 H          0.354847665257        1.615106017142       -0.633866264924
 H         -0.044200634879        2.014951896682       -3.103079705635
 H         -0.105889680853       -2.275450043060       -3.733631395105
 H          0.304575925984       -2.592391142161       -1.331860972179
 C         -0.002557663547        1.804180928539        3.052283105822
 C          0.167344024719        0.057539508236        1.724542650747
 C         -0.178918579271       -0.464585136818        3.097149113649
 C          0.217450185370       -0.784408598316        0.601517847090
 C          0.300722087779       -0.528962843548       -0.797083093990
 C          0.334899281185        0.778423226141       -1.360653940462
 C         -0.001096745427        1.015269402066       -2.695715687324
 C         -0.240010903961       -0.067285931722       -3.638335370559
 C         -0.022610854023       -1.409657243494       -3.103717193082
 C          0.194842551706       -1.610304488717       -1.758253348403
 O         -0.300294922138       -1.581242882875        3.603617143535
 O         -0.612515810959        0.142852249464       -4.816275643613
