21
Frame 4
 N          0.006062731363        0.675215974580        3.864272152823
 N         -0.084871279529        1.470669940305        1.780886341043
 H         -0.308240737819        0.609000997952        4.817752536683
 H         -0.072623493786        2.790241941106        3.467171723023
 H          0.142033532302       -1.847481649399        0.910776695523
 H          0.339686833268        1.712166413828       -0.702307367832
 H          0.132132587892        2.042868919411       -3.118663253647
 H         -0.155494070701       -2.284243886055       -3.631008612576
 H          0.064868097259       -2.520197264999       -1.240387256674
 C         -0.127302264634        1.784883889285        3.024615069130
 C         -0.032598353843        0.083865815957        1.731244856599
 C          0.034098101685       -0.522531705641        3.085187725152
 C          0.061171010865       -0.783263150782        0.635788048112
 C          0.122699018315       -0.449227804175       -0.757230238998
 C          0.181653428444        0.842617817744       -1.360863233572
 C          0.049765508262        1.009662757810       -2.738022074052
 C         -0.185092985222       -0.080888845761       -3.679129314427
 C         -0.082280434883       -1.382726744992       -3.016693009686
 C          0.046911894817       -1.531132153084       -1.681756473166
 O          0.099431395947       -1.656380100891        3.538649967937
 O         -0.232010520002        0.036878837800       -4.930284281395
