21
Frame 4
 N          0.069368093162        0.668394140181        3.917923937579
 N          0.027637686389        1.499287612613        1.815419441162
 H         -0.128855637713        0.678569554504        4.950820159983
 H         -0.182622164504        2.768032069710        3.500944389288
 H          0.129147644868       -1.796915821314        0.861957464715
 H          0.020561475624        1.635951874873       -0.677323780902
 H          0.035883453983        1.960620578869       -3.193400528641
 H         -0.143242013408       -2.301092073971       -3.644333467166
 H         -0.080421434195       -2.551816155335       -1.225181993429
 C         -0.063706300832        1.780421350916        3.079293850489
 C          0.090526890237        0.105010556370        1.738345280494
 C          0.040452538802       -0.487410928195        3.076984781122
 C          0.172303309606       -0.741535815460        0.595771817699
 C          0.069071142510       -0.436403049606       -0.787838688094
 C          0.043395482712        0.812319483108       -1.391822619890
 C          0.088223246621        0.952321004032       -2.740491965675
 C         -0.057817882343       -0.105909339217       -3.711657527403
 C         -0.031059930699       -1.399579731048       -3.019999262684
 C         -0.019278991513       -1.541138897528       -1.646683706986
 O         -0.068469027402       -1.676269109558        3.438057807998
 O         -0.011097581905        0.177142696056       -4.936785389660
