21
Frame 4
 N         -0.266983917177        0.661664417603        3.764050629671
 N          0.347620238456        1.442514205226        1.705115095066
 H         -0.658474827007        0.794497211076        4.655244400051
 H          0.070975043004        2.756539540836        3.342733174562
 H          0.116681051052       -1.857523152135        0.863093174688
 H          0.232201364477        1.742401496386       -0.587182908885
 H         -0.047869740440        2.013025328795       -3.008054135843
 H         -0.170271920415       -2.291192503410       -3.699914143203
 H          0.276974192632       -2.558193369584       -1.200543458266
 C          0.068941902404        1.758662836466        2.954939374165
 C          0.214944934552        0.018500444635        1.692754231548
 C         -0.065171001607       -0.541972893636        3.009410673967
 C          0.245315512900       -0.803023026436        0.594432048451
 C          0.229011368956       -0.461620070825       -0.730783241743
 C          0.166585391741        0.883883346349       -1.264819987300
 C          0.046198822720        1.047576192458       -2.611154442742
 C         -0.165689271729       -0.087888390759       -3.588877913816
 C         -0.021812630247       -1.431414380596       -3.035900218623
 C          0.126969157306       -1.564839204869       -1.681637580881
 O         -0.163965321504       -1.665838690341        3.542100808998
 O         -0.582180350074        0.144240662761       -4.715005579864
