21
Frame 4
 N         -0.210380869325        0.632169925536        3.869900071361
 N          0.155510108435        1.446770107930        1.792872770921
 H         -0.027985638253        0.577402579093        4.879270154387
 H         -0.263801721985        2.702530263744        3.319257243805
 H          0.119038020873       -1.731976396900        0.910202789535
 H          0.142580499352        1.742094748177       -0.733410759216
 H          0.050337545696        2.030536228876       -3.238052306812
 H         -0.209894297457       -2.251622810504       -3.681253347127
 H         -0.071166137325       -2.501837399114       -1.180229275475
 C         -0.067266132599        1.707912568076        3.027381275482
 C          0.159689536715        0.027415645344        1.762373968486
 C          0.060871306458       -0.535980298306        3.089697268467
 C          0.054610938132       -0.701254320417        0.620436935451
 C          0.093551097048       -0.377476999251       -0.748806611888
 C          0.121818118889        0.874555530278       -1.395493757081
 C         -0.047476988576        1.044457694034       -2.748456684108
 C         -0.026042631988       -0.108403326561       -3.637662781581
 C         -0.028298102736       -1.421553524635       -2.967562769528
 C          0.008100933168       -1.517943053488       -1.618111852432
 O          0.013769671557       -1.659415775372        3.570285220913
 O         -0.027565256080        0.021618613458       -4.892637553559
