21
Frame 4
 N          0.030938885739        0.754816713770        3.860943037732
 N         -0.106236868103        1.410712204230        1.700522062708
 H          0.217316423871        0.826484444867        4.826705048095
 H         -0.216199431230        2.803329489557        3.232068000430
 H         -0.165282853507       -1.919912733229        0.869805293131
 H         -0.055790281372        1.617486707429       -0.578307313246
 H          0.141245502567        2.066555861249       -2.959166653648
 H         -0.028994454830       -2.201041626690       -3.803286860746
 H         -0.191820939345       -2.611566474349       -1.424099961278
 C         -0.106386247992        1.762975558180        2.948624605447
 C         -0.081997443470       -0.011844604165        1.786915357392
 C          0.088157537339       -0.468123979281        3.150011470037
 C         -0.135896827663       -0.840135642659        0.676584814530
 C         -0.030334230166       -0.530049003930       -0.710140305046
 C          0.013997172477        0.787864058515       -1.276182678113
 C          0.144237233210        1.021299076068       -2.614985256726
 C          0.084920118134       -0.047002955576       -3.645954024688
 C          0.099903839400       -1.385079604524       -3.065094945143
 C          0.028516263155       -1.597035780822       -1.688043161805
 O          0.267308808688       -1.601414133469        3.618166408284
 O          0.002397793098        0.161682424828       -4.905084937348
