21
Frame 4
 N          0.029951392566        0.603382787581        3.946759787055
 N          0.002245569311        1.533918633797        1.912833434973
 H         -0.147073330686        0.448979308668        4.916998341295
 H          0.184436552582        2.733923145250        3.643318756966
 H         -0.046611496805       -1.626072760862        0.814222575717
 H         -0.081514952821        1.759055250147       -0.809887233630
 H         -0.223330577887        2.046823928754       -3.285601767903
 H         -0.080959122145       -2.372182731111       -3.697708657836
 H          0.023180808510       -2.512008968252       -1.074312614126
 C          0.036518815046        1.751990398592        3.192537940293
 C         -0.108278555583        0.136697389403        1.758215069024
 C          0.008630006784       -0.499325661407        3.096629211974
 C          0.001537127337       -0.580341416468        0.583305606264
 C          0.042015171497       -0.402688390338       -0.813874505921
 C         -0.057038153830        0.877653878660       -1.459817354410
 C         -0.005550745235        1.056476755233       -2.830395587367
 C          0.070513261375       -0.158710298980       -3.708363965469
 C         -0.024668377661       -1.437767675242       -3.013082494046
 C          0.086217181079       -1.563169357700       -1.658014050860
 O          0.053886862206       -1.680314990472        3.445343996897
 O          0.235892564358       -0.116319225253       -4.959106488889
