21
Frame 4
 N         -0.257790941142        0.691625527688        3.816182225690
 N          0.105264521671        1.430877356653        1.730334236283
 H         -0.240636582426        0.748493518384        4.793529346028
 H         -0.416207494138        2.746354889210        3.350778890808
 H          0.234123928108       -1.831603800452        0.957860316192
 H          0.387382767882        1.570192514036       -0.612493817302
 H          0.104035787075        2.040037044353       -3.057129732355
 H         -0.519932189679       -2.089911669208       -3.720493537591
 H          0.018527755135       -2.636227377192       -1.303969598779
 C         -0.168304258116        1.776658353207        2.958603358109
 C          0.254676672271        0.048642846601        1.727590236332
 C          0.070549430856       -0.490897615340        3.089362168753
 C          0.280723445952       -0.764082709873        0.591896578229
 C          0.191717634476       -0.548474885942       -0.772298007564
 C          0.208924525860        0.762367156234       -1.357544123938
 C          0.065418084877        1.014851812106       -2.660881227024
 C         -0.092395307180       -0.046911388964       -3.590759666743
 C         -0.199023958084       -1.376577202700       -3.028297165554
 C          0.031640964616       -1.623690336462       -1.682373432627
 O          0.077377605068       -1.573400206169        3.617375562667
 O         -0.136072393083        0.151676173829       -4.847272609615
