21
Frame 4
 N          0.021611450551        0.713564571120        3.856188072042
 N         -0.329096001220        1.411525770862        1.777365312072
 H          0.137970767477        0.691903099038        4.833908425959
 H         -0.449137610673        2.747168259136        3.395260712279
 H          0.136199411430       -1.830839795143        0.908304503105
 H          0.367675866368        1.679477994607       -0.693647941980
 H          0.244861828016        2.001138704034       -3.173071784392
 H         -0.291830647592       -2.224664340316       -3.662740130267
 H         -0.228583209522       -2.554598762516       -1.305240196856
 C         -0.316459002593        1.746616616292        3.016341246978
 C         -0.006783995564       -0.008268952547        1.784586155080
 C          0.171836424567       -0.507366069065        3.139018680024
 C          0.026251022749       -0.764554744130        0.609249393416
 C         -0.004123305859       -0.457366487365       -0.757677072824
 C          0.183709767352        0.833385691446       -1.348911954859
 C          0.194253277182        1.001952442398       -2.714133522740
 C         -0.036733474334       -0.057241043711       -3.668546693769
 C         -0.152255817497       -1.395472789266       -3.037752516312
 C         -0.057021069412       -1.537092688928       -1.678926866180
 O          0.345255949143       -1.614467473388        3.657796357311
 O          0.042398369430        0.125199997443       -4.937370178086
