21
Frame 4
 N         -0.215214482315        0.660825727807        3.810456974732
 N          0.287190341287        1.535771735780        1.782612283246
 H         -0.295964713273        0.619000688563        4.794774738752
 H         -0.053072238725        2.813177750373        3.463666945395
 H          0.195735996301       -1.867290327716        0.807234836972
 H          0.101259681586        1.709618706370       -0.681010578644
 H          0.099229941907        1.976440643263       -3.110453393178
 H         -0.182545382625       -2.249075367484       -3.652159181120
 H          0.177355289735       -2.546080601307       -1.243020507339
 C         -0.028252241916        1.801772595935        3.032117055329
 C          0.182923094777        0.105961477240        1.666797541780
 C         -0.061671850858       -0.465050273796        3.038642794012
 C          0.149312115420       -0.774028200429        0.608474930307
 C          0.085778432196       -0.500742294149       -0.759024961741
 C          0.070894141463        0.797741203356       -1.315708558000
 C         -0.072953511758        1.009166428917       -2.652538554059
 C         -0.106352710566       -0.091717936028       -3.585912401201
 C         -0.091746105094       -1.422744285286       -2.987263839003
 C          0.029087380445       -1.582081032653       -1.644700757757
 O         -0.082221058785       -1.659729060869        3.469511124909
 O         -0.188772119202        0.129062422112       -4.842496493393
