21
Frame 4
 N          0.198967153496        0.702060452124        3.887148949483
 N          0.157293949196        1.424139524611        1.745877774962
 H         -0.102653959905        0.767509818897        4.847568693596
 H          0.085241614136        2.804645359535        3.294004118792
 H         -0.243081430783       -1.818546915186        0.937118744674
 H         -0.236743000065        1.583402959912       -0.585486232403
 H         -0.069016932598        2.079486888030       -3.047567118387
 H          0.135771697236       -2.210906055438       -3.759755008939
 H          0.124772998729       -2.618154085499       -1.314816219520
 C          0.156263072415        1.787284913615        3.006837515461
 C          0.007903526745        0.051449555985        1.695784917406
 C         -0.067491152806       -0.505457691278        3.072520435176
 C         -0.073583721126       -0.809484742411        0.594705056502
 C          0.033095252505       -0.538862755929       -0.776967222528
 C         -0.125821511935        0.789365106897       -1.302903604720
 C         -0.039713787718        1.005901242702       -2.664893580136
 C         -0.013860686789       -0.039646712317       -3.615327576518
 C          0.180226352985       -1.373306116871       -3.017760668944
 C          0.090464913914       -1.616675895797       -1.716901843190
 O         -0.164898026690       -1.612808570810        3.581327856467
 O         -0.033136320941        0.148603719228       -4.860514987234
