21
Frame 4
 N         -0.043026694765        0.627310539134        3.888853245521
 N         -0.000383667581        1.522414141881        1.811030727346
 H         -0.419402047672        0.585192422756        4.838731318798
 H         -0.267556074870        2.751733145894        3.554272278473
 H          0.230876078141       -1.753631299120        0.857364951467
 H          0.404817327010        1.681661617876       -0.659639555104
 H          0.183392408727        2.006965594111       -3.273917890202
 H         -0.279219320451       -2.336821123191       -3.554558816065
 H          0.035500709091       -2.519499746344       -1.165931021075
 C         -0.140402784320        1.760152560473        3.081273944814
 C          0.181093841142        0.118290580941        1.697924320251
 C          0.039777926492       -0.494263380958        3.025050875667
 C          0.169034088373       -0.702516373084        0.598352382975
 C          0.168810243909       -0.434499033316       -0.778737448841
 C          0.175434138145        0.889768737238       -1.361110590023
 C          0.088540723895        1.035119508504       -2.724594379315
 C         -0.175004399883       -0.085452164544       -3.648204876803
 C         -0.199516935509       -1.439464003613       -3.017061128673
 C          0.054337763122       -1.557157273529       -1.696971959098
 O          0.094125306208       -1.684703897646        3.416617019516
 O         -0.301228629204        0.029399446535       -4.888743399629
