21
Frame 4
 N          0.093774134018        0.697002862194        3.899628757956
 N          0.002753169710        1.469711936202        1.837359129139
 H         -0.083447983199        0.664855055536        4.925331038653
 H          0.200827531007        2.809469617882        3.376583516038
 H         -0.100488343816       -1.805762126681        0.836252282740
 H         -0.056303528735        1.711493916240       -0.767888796880
 H         -0.067934993313        2.026097335894       -3.094848306271
 H          0.180305321150       -2.276413546302       -3.683329925710
 H          0.066129596829       -2.605900425395       -1.317009561540
 C          0.037583326015        1.799468915097        3.087710318795
 C         -0.042260399917        0.089104331904        1.790746217243
 C         -0.085000155099       -0.501069759432        3.119667451879
 C         -0.002041451138       -0.714645090410        0.653641902062
 C         -0.039322528915       -0.455203895090       -0.746330016694
 C         -0.015016860763        0.824797118327       -1.344854589251
 C         -0.066756476923        1.040113485828       -2.681825012002
 C         -0.007732397609       -0.077573773446       -3.704846959820
 C          0.103088874780       -1.430625039207       -3.044698704185
 C          0.064837595417       -1.592386719404       -1.678453173408
 O         -0.097754352060       -1.725278868037        3.473741327791
 O         -0.085240077440        0.052744668299       -4.936576896535
