21
Frame 4
 N         -0.062665145993        0.611155743167        3.952074205167
 N          0.106807100128        1.523888262854        1.906907316094
 H         -0.129322055924        0.602930484669        4.970245747923
 H          0.198057051558        2.713812424480        3.610472608473
 H         -0.000330271938       -1.687111095429        0.962950911188
 H         -0.103494493697        1.711505939471       -0.842573058136
 H         -0.134209529270        2.030228820521       -3.256410410873
 H          0.056050326861       -2.326533096365       -3.660058574749
 H          0.009740041359       -2.596034843783       -1.283634466875
 C         -0.007652949413        1.767885321233        3.162581307943
 C          0.065912905246        0.144472588185        1.743050806752
 C         -0.046182921883       -0.471582489101        3.064983024286
 C          0.070107829252       -0.693950283835        0.601489577840
 C          0.040200693231       -0.450014771395       -0.763981704006
 C         -0.053215544157        0.828835720667       -1.418872355644
 C         -0.023247974596        1.015654549331       -2.802336058340
 C          0.058343965279       -0.097697365771       -3.686039459427
 C          0.050866331499       -1.406415782117       -3.023047618851
 C         -0.005596291418       -1.536532770837       -1.673587589789
 O         -0.081666467533       -1.655387475018        3.390606050299
 O         -0.008502598592       -0.029109880927       -4.954820259275
