21
Frame 4
 N          0.074503326185        0.697076719310        3.872595955887
 N          0.118717109010        1.493557401233        1.762451616657
 H         -0.009488186353        0.687884918450        4.882192241895
 H          0.331055389534        2.790604216658        3.424490079569
 H         -0.043940791196       -1.838425844786        0.975880138449
 H         -0.267355750121        1.663628421533       -0.670040106816
 H         -0.295504888561        2.004369892193       -3.115149667784
 H          0.318149188538       -2.279039789692       -3.706932427608
 H         -0.008814878009       -2.595206225115       -1.304201064361
 C          0.256222560592        1.779425661299        3.032544825403
 C         -0.072995677900        0.091974376016        1.707357588144
 C         -0.134104563413       -0.469609083067        3.092258223547
 C         -0.096604181657       -0.783590009768        0.638984794768
 C         -0.125094759246       -0.523242146232       -0.755650846236
 C         -0.188401170068        0.798315617052       -1.307979047467
 C         -0.139652667428        1.003523742777       -2.700903142192
 C          0.049516651733       -0.060434139490       -3.673552693747
 C          0.136934324232       -1.414491824245       -3.097603413638
 C          0.083147328781       -1.586958188820       -1.695593691276
 O         -0.214834953628       -1.648720018997        3.523443479360
 O          0.228546588976        0.189356303694       -4.884592842553
