21
Frame 4
 N          0.050775510349        0.684222092425        3.794676708793
 N         -0.079414464380        1.424284353761        1.639067622219
 H          0.185010081511        0.758180094973        4.766423229448
 H         -0.176269597988        2.825435200186        3.317489077689
 H         -0.114936132351       -1.818970400292        1.001600653761
 H         -0.148773701507        1.560750254529       -0.530606343346
 H          0.112290730441        2.025572806249       -3.024379874743
 H          0.153741685755       -2.228101511710       -3.780557531133
 H         -0.245078617160       -2.682168291871       -1.307589133988
 C         -0.071458183429        1.778018650339        2.932847788168
 C          0.114803828883        0.063254364732        1.691586272125
 C          0.132461887054       -0.478122899828        3.072804162407
 C         -0.081451553466       -0.807009985586        0.621751676300
 C         -0.156869284639       -0.552150422905       -0.752687214726
 C         -0.117171462457        0.792454607110       -1.255634529525
 C          0.019720141951        1.034768211082       -2.586576304861
 C          0.127934061674       -0.027978087469       -3.573037007563
 C         -0.038679697452       -1.402741911065       -3.069792125729
 C         -0.199350395866       -1.588563000782       -1.725582284296
 O          0.238712095741       -1.602696319391        3.585990684659
 O          0.294003067337        0.241562195513       -4.817795525659
