21
Frame 4
 N          0.053364495542        0.661232427257        3.905103604069
 N         -0.081617329394        1.475178421313        1.760066353680
 H         -0.076732841344        0.732331692700        4.884092057538
 H         -0.059161287841        2.766294006291        3.465926171300
 H         -0.084009258770       -1.847425302066        0.838153152638
 H         -0.143666841191        1.772552810632       -0.698931397760
 H          0.052524825926        2.055276078405       -3.075889946491
 H         -0.004082607624       -2.318143632557       -3.650299176961
 H         -0.156171050861       -2.609402850740       -1.298881124580
 C         -0.034335321616        1.769730730116        3.079793298538
 C          0.037180940330        0.048326622559        1.725048968407
 C          0.128661141196       -0.495284729025        3.050288853541
 C         -0.033280053996       -0.783174712433        0.594367628281
 C         -0.073269429849       -0.437281999797       -0.784358853364
 C         -0.099408482830        0.877276673530       -1.353963611843
 C          0.028522125845        1.000660895307       -2.680129143469
 C          0.132486619511       -0.094690410643       -3.650842138851
 C         -0.093919650571       -1.425155537988       -3.013911949921
 C         -0.166744248966       -1.569445327209       -1.695924237972
 O          0.344199095559       -1.633718550956        3.471522946773
 O          0.329459160944        0.054862695304       -4.871231453553
