21
Frame 4
 N          0.086659219350        0.686158946990        3.809576585682
 N          0.100814707332        1.446983344731        1.738026962603
 H         -0.296194568643        0.677224312976        4.718381488089
 H         -0.120058973991        2.809751938908        3.406207259506
 H          0.098667827241       -1.830353017976        0.863103839001
 H         -0.038106640575        1.655004774891       -0.624440397022
 H          0.060387898982        2.103803236604       -3.068933547055
 H         -0.030076664478       -2.212256122782       -3.738803003760
 H         -0.096676862475       -2.635386289221       -1.236094176102
 C         -0.035396384335        1.792756527083        2.964632854101
 C          0.143671932162        0.056140835720        1.729145931919
 C          0.132506798699       -0.521381399235        3.090000156662
 C          0.123032483220       -0.767436054915        0.608705469516
 C          0.094029257901       -0.507022335840       -0.756802562771
 C          0.071371488009        0.808761555671       -1.304976529126
 C         -0.043128601231        1.057304498139       -2.655406947490
 C         -0.033624996854       -0.029869940426       -3.610530510834
 C         -0.071524989781       -1.401290490613       -3.009536196221
 C         -0.046776053358       -1.631034824483       -1.671319792574
 O         -0.070260911330       -1.619516911120        3.591500076317
 O         -0.029315965844        0.061657414896       -4.842436960443
