21
Frame 4
 N         -0.077668415206        0.683613906090        3.880197052299
 N         -0.030683642556        1.445328273508        1.759182288096
 H          0.313147062938        0.698004626331        4.832603390991
 H          0.075362742287        2.810213103852        3.368623111340
 H         -0.220002704470       -1.847100380868        0.933914139590
 H         -0.058738056997        1.724605023993       -0.667288438876
 H          0.125060802004        1.981259983495       -3.154946617845
 H          0.349874358522       -2.192764492418       -3.781232087800
 H          0.012164551635       -2.604150833505       -1.338704661008
 C         -0.007867826732        1.773348814309        3.009717362993
 C         -0.199901382816        0.027634171644        1.755346910015
 C         -0.057783458012       -0.485818460476        3.147093098018
 C         -0.177379832809       -0.795650393879        0.636633204969
 C         -0.064611263000       -0.483747168705       -0.767115133877
 C          0.011097232313        0.839095462637       -1.301386600420
 C          0.004342094636        1.037192273886       -2.643832521426
 C          0.018562986691       -0.105407217459       -3.637544889369
 C          0.122761681931       -1.412502047352       -3.089123420483
 C          0.054471280620       -1.598367138825       -1.710808943856
 O          0.044794680667       -1.615593986954        3.600895967552
 O         -0.237002891646        0.120806480696       -4.832223210904
