21
Frame 4
 N         -0.256669471163        0.760408990058        3.857508205840
 N          0.348318541684        1.466554710393        1.795400062754
 H         -0.133190023491        0.757361430621        4.878514337820
 H          0.235833044135        2.780193959570        3.394284009020
 H          0.042770665533       -1.846850929716        0.924331150896
 H         -0.092441496671        1.612273979262       -0.628582520371
 H         -0.131558562984        2.038767053609       -3.040843231856
 H          0.137927476832       -2.220495994918       -3.766338412413
 H          0.224907494606       -2.631431191776       -1.353399765531
 C          0.127588519990        1.759540388293        3.046468595984
 C          0.114555296707        0.064799501992        1.757216747074
 C         -0.159952510184       -0.483414004304        3.078154277318
 C          0.105268583181       -0.770202863450        0.655576297317
 C          0.123883080748       -0.548664014783       -0.706256000408
 C         -0.011801348152        0.791928150737       -1.350530044047
 C         -0.179996170352        1.028343822795       -2.688757531766
 C         -0.036213452839       -0.068728654500       -3.681973199900
 C         -0.005475565424       -1.434870128335       -3.052400812187
 C          0.098319672162       -1.580556543602       -1.705476538928
 O         -0.355191300313       -1.619556723666        3.509588261751
 O         -0.196882474004        0.144599061721       -4.922483888366
