21
Frame 4
 N         -0.099293799593        0.687599880085        3.903318697507
 N         -0.022807766322        1.489039756375        1.790116829622
 H          0.037368567658        0.553118465359        4.885028587985
 H          0.125049390573        2.769586467041        3.426758505402
 H          0.026191873560       -1.768031076600        0.763577248278
 H          0.011755340150        1.649148462250       -0.636698080491
 H         -0.045848862089        1.995623123275       -3.159251839884
 H          0.015937109472       -2.225997971219       -3.667837320211
 H          0.121131703992       -2.569100196697       -1.227925765167
 C         -0.035028639540        1.791652365446        3.041731285830
 C         -0.082717668166        0.095654192681        1.732111536970
 C         -0.044051180704       -0.475802925099        3.105449145774
 C         -0.060409444200       -0.702183231523        0.625074411358
 C          0.081914420031       -0.467653854759       -0.758385056824
 C          0.105562227124        0.827260741457       -1.345694511943
 C         -0.015266475116        1.024468077253       -2.715798781135
 C         -0.006222640864       -0.108482052166       -3.688155202119
 C         -0.042600027441       -1.407451911579       -3.027459558334
 C          0.050144376608       -1.611685538810       -1.663566331717
 O         -0.057963508328       -1.615702456023        3.542238764626
 O         -0.062844996805        0.068939683253       -4.924632565525
