21
Frame 4
 N          0.162319444080        0.667160756700        3.921778958056
 N         -0.141266997863        1.493297539608        1.820534893051
 H          0.315490537870        0.626834278306        4.882042021140
 H         -0.149544274419        2.774316530635        3.549909784258
 H          0.018844011956       -1.750608759253        0.928812418837
 H         -0.178270512604        1.754729125482       -0.814277099557
 H         -0.069966602908        1.971051581541       -3.207271270394
 H          0.020902836385       -2.264041700165       -3.751809116517
 H         -0.222676322401       -2.615154126070       -1.295300022079
 C          0.000249661383        1.770459791860        3.130805178364
 C         -0.132184523176        0.093793292895        1.803408469159
 C          0.069939953177       -0.516332280914        3.119291784717
 C         -0.055052120145       -0.685424318662        0.638296469575
 C         -0.018778592795       -0.455591669642       -0.748629688486
 C         -0.080101849002        0.860679565123       -1.390318035876
 C          0.034191174996        0.989518198894       -2.724033077922
 C          0.172965126678       -0.086325357650       -3.720345409338
 C          0.030096049234       -1.407057715409       -3.057534958652
 C         -0.054252804468       -1.592638473793       -1.692725137516
 O         -0.031020496619       -1.665216888715        3.539783667566
 O          0.308116300640        0.036550629229       -4.932419828386
