21
Frame 4
 N          0.070027014604        0.578439823008        3.939336846757
 N         -0.123108766442        1.542181215346        1.916022312725
 H          0.305629959949        0.467390489643        4.913797865529
 H         -0.010149322288        2.716814991004        3.711905070382
 H          0.000998845949       -1.691789987174        0.748196961384
 H         -0.048433890797        1.857321475948       -0.860308903176
 H         -0.107299339953        1.956963528655       -3.388469742704
 H          0.110098440329       -2.439500709115       -3.641067407226
 H          0.043331616867       -2.448682972767       -1.108217770760
 C          0.011897722067        1.728511881933        3.202983267392
 C         -0.084033239115        0.159897868660        1.762679406350
 C         -0.066135174770       -0.522323776331        3.105537480224
 C         -0.083040833604       -0.557715873809        0.585154823115
 C         -0.053757037414       -0.313935979780       -0.811659805741
 C         -0.080039470737        0.944465335661       -1.460491543925
 C         -0.023829945792        0.997484614478       -2.815174768709
 C          0.060310513703       -0.200854962789       -3.706014244824
 C         -0.074902400640       -1.503681846944       -3.012547432333
 C         -0.064034321037       -1.484635416477       -1.621553257163
 O         -0.068324556898       -1.732892001920        3.464929315541
 O          0.284794186021       -0.053457697230       -4.925038472838
