21
Frame 4
 N         -0.200549746174        0.833196845928        3.816491984021
 N          0.172002319992        1.390962959747        1.678763523849
 H         -0.103726144244        0.782721079130        4.822801944268
 H         -0.060291034532        2.859398350402        3.098768424234
 H          0.088763375288       -1.957007235382        0.966704517919
 H         -0.048006621159        1.570885281973       -0.553338633488
 H          0.017277492288        2.051457131771       -2.835000060295
 H         -0.040092338684       -2.198058691280       -3.793023219690
 H         -0.055845337222       -2.634343851460       -1.424590921530
 C          0.056755302944        1.805082959063        2.870359149747
 C          0.157271460590       -0.024951870139        1.714251456328
 C          0.012589737681       -0.442342439496        3.101979102489
 C          0.066712377980       -0.931683894242        0.665864156588
 C         -0.059984586047       -0.668775875578       -0.729294911839
 C         -0.121349256801        0.708528748970       -1.210417565916
 C          0.008428500737        1.001225261095       -2.539272203110
 C         -0.006246374164        0.025358267504       -3.633892752056
 C         -0.085934464897       -1.352981702340       -3.093017347267
 C         -0.008116835673       -1.620876309664       -1.743102791774
 O          0.077384213129       -1.535688289055        3.659200865728
 O          0.132957958968        0.337893273052       -4.840234718205
