21
Frame 4
 N         -0.058884531726        0.717448373912        3.908322050581
 N          0.097397698061        1.397476390412        1.748811625251
 H          0.316964590318        0.723839673875        4.825275864749
 H          0.434433540761        2.785529138579        3.325739425588
 H         -0.349127132173       -1.833555265691        0.884319804238
 H         -0.262402397893        1.637623152671       -0.656590087364
 H         -0.290861476700        2.077330488208       -3.112737136300
 H          0.533709425300       -2.209218903505       -3.765028686705
 H          0.159087533023       -2.558361451313       -1.205318399485
 C          0.240778242620        1.749505035822        3.009013202543
 C         -0.136872609979        0.030481163493        1.762161744590
 C         -0.198375010357       -0.511899645362        3.128032909275
 C         -0.225760499836       -0.789301291791        0.643170523735
 C         -0.166031775915       -0.498269038145       -0.739013851582
 C         -0.176697008348        0.833503410903       -1.369125197782
 C         -0.203649017760        1.011614404626       -2.722651727057
 C          0.019737476538       -0.079685605603       -3.666274731731
 C          0.237943935842       -1.384524867704       -3.045537629800
 C          0.051650025028       -1.565136342197       -1.671254703126
 O         -0.200095603041       -1.656596743921        3.598079267576
 O          0.177054596238        0.122197922730       -4.879394267193
