21
Frame 4
 N         -0.183518239987        0.761447904261        3.851460012931
 N          0.148395924008        1.408363936848        1.732617288996
 H          0.004660245388        0.808465514559        4.813558890510
 H          0.056603096821        2.804415815994        3.343444944482
 H          0.028276448723       -1.900599297857        0.837500248537
 H         -0.245139557902        1.557671323753       -0.588420546484
 H         -0.013022254624        2.014994353551       -3.051846826786
 H          0.044135792326       -2.160689991371       -3.813816406561
 H         -0.186713945164       -2.614012575881       -1.288435924783
 C          0.006104008633        1.784622908183        2.947009359559
 C          0.191985111788        0.007364366888        1.747363497362
 C         -0.034051199757       -0.453175892213        3.150003182197
 C          0.043063225319       -0.842524768855        0.614356878660
 C         -0.066117288832       -0.578870198594       -0.782788090704
 C         -0.120047810766        0.790725207151       -1.310672108182
 C         -0.022024865633        1.033192772233       -2.620722571123
 C          0.076608451535       -0.014485495757       -3.606893303933
 C          0.083507545994       -1.373766767060       -3.078174924448
 C         -0.063171941841       -1.635370574891       -1.746970737352
 O          0.090480126478       -1.594453968180        3.688776010971
 O          0.159987127493        0.196685427239       -4.837348873850
