21
Frame 4
 N          0.045483999095        0.697148456375        3.851249368037
 N         -0.379615930215        1.408023455511        1.744010283416
 H          0.354085324034        0.799756230688        4.818988998329
 H         -0.291797976867        2.781836839207        3.423573275892
 H          0.008570846975       -1.834764347068        0.842986730276
 H         -0.078089278500        1.654004783711       -0.648934279195
 H          0.372105782192        2.038507273432       -3.041811856278
 H         -0.065310506997       -2.274829168073       -3.681256955260
 H         -0.320828003566       -2.625408500340       -1.271779238452
 C         -0.308996134364        1.764764096072        3.016818050030
 C         -0.064083812621        0.045033481815        1.725441122238
 C          0.229949544786       -0.472472923978        3.062342393195
 C         -0.109435854157       -0.797228767958        0.601217123066
 C         -0.229501056687       -0.505814282798       -0.756186102822
 C         -0.015977715765        0.827372397850       -1.288295922073
 C          0.221119170259        1.029491879200       -2.648057903142
 C          0.156408176529       -0.085068160443       -3.644336455830
 C         -0.074413054545       -1.397316676636       -3.026890512603
 C         -0.271666992536       -1.587839107051       -1.695561690330
 O          0.542653907329       -1.627335998404        3.469125484246
 O          0.279339565621        0.162139038888       -4.852641912740
