21
Frame 4
 N          0.021990216604        0.688583742061        3.892975228840
 N          0.249272747065        1.445248464767        1.758894287766
 H         -0.057199819055        0.765808970640        4.893581724740
 H          0.354220593450        2.753853797688        3.537235163448
 H         -0.060756083761       -1.805560328494        0.899795665031
 H         -0.337905519050        1.692858131106       -0.672548895103
 H         -0.289097111303        2.002461560824       -3.174199795286
 H          0.287099914260       -2.235059393407       -3.767445229503
 H          0.138156751540       -2.574359256808       -1.251198738115
 C          0.218819967685        1.769706220445        3.043577440092
 C          0.099448882394        0.035794131414        1.715407453881
 C         -0.163726840868       -0.506886305020        3.024518059822
 C          0.014564696755       -0.775517366392        0.577570756648
 C         -0.029348762969       -0.499906582156       -0.746818473788
 C         -0.118722000840        0.840006749169       -1.355052169231
 C         -0.100731840062        1.017347849721       -2.682658624149
 C         -0.068232813291       -0.113779265647       -3.619446219416
 C          0.182358158332       -1.393815786200       -3.032047200797
 C          0.145162937120       -1.593431777588       -1.682216457837
 O         -0.490749568502       -1.609313044432        3.495510740374
 O          0.005375494496        0.095959488308       -4.855434717415
