21
Frame 4
 N          0.066563447847        0.652760709840        3.891368171595
 N         -0.194528673855        1.564839044377        1.831293426465
 H          0.181770412638        0.567269646752        4.895316387893
 H         -0.336091623078        2.798133649327        3.573699090807
 H          0.003592322599       -1.695981491028        0.900200512160
 H          0.130678757257        1.658093397641       -0.624813187081
 H          0.366023796310        1.952682088039       -3.210184859387
 H         -0.073325933201       -2.263536740814       -3.741932938104
 H         -0.086360135848       -2.610405968337       -1.255339773958
 C         -0.179692291837        1.804190486525        3.121023097259
 C         -0.090958505131        0.147534989441        1.730175721128
 C          0.136054330696       -0.474989166970        3.039007931399
 C         -0.151190348680       -0.672237735906        0.589754402838
 C         -0.056302929362       -0.492364642096       -0.828649937811
 C         -0.001387944862        0.826035319706       -1.352383224145
 C          0.108732635612        1.039542555290       -2.684120880418
 C          0.033804401857       -0.123024137724       -3.633504003518
 C         -0.031165555084       -1.462754566129       -3.048317835225
 C         -0.142200725516       -1.648959426297       -1.688487925878
 O          0.328283274645       -1.631244496867        3.405089108684
 O         -0.012298713006        0.064416485231       -4.909193284702
