21
Frame 4
 N          0.110481726550        0.673691772053        3.814699508273
 N          0.113697942514        1.505854775338        1.735915634953
 H          0.072158471371        0.595441558324        4.839749491591
 H          0.240334633870        2.767466306472        3.361314974832
 H         -0.107556091804       -1.796206076884        0.855752088213
 H         -0.298557492403        1.670942007967       -0.605766558441
 H         -0.293503186869        2.057351664918       -3.044626921312
 H          0.223381702160       -2.284219455625       -3.734906620092
 H          0.088129399588       -2.597372576119       -1.237242707820
 C          0.253724256804        1.778463590743        2.988670775906
 C         -0.039578419591        0.065449132334        1.717269934774
 C         -0.096065505789       -0.476316632297        3.062078428705
 C         -0.127225110307       -0.728731920844        0.584824513911
 C         -0.147769584914       -0.459985477132       -0.761966301986
 C         -0.178377554184        0.853179282591       -1.301224963505
 C         -0.086710105168        1.051106766451       -2.669596692625
 C          0.064432432898       -0.081764031166       -3.618510696080
 C          0.159948274372       -1.396583965265       -3.015779140162
 C          0.063364283761       -1.570397568937       -1.662522014393
 O         -0.270352742297       -1.637016372531        3.524692241377
 O          0.256042669438        0.009647219609       -4.832824976117
