21
Frame 4
 N          0.195963107345        0.718533309346        3.791632590708
 N         -0.207595826513        1.461283623045        1.733505130491
 H          0.241996434186        0.840392903921        4.783691277623
 H         -0.000466370036        2.848802546284        3.428801392694
 H         -0.113999699103       -1.929771381246        0.852047007284
 H         -0.138150841603        1.643462167489       -0.530224537050
 H         -0.005493698590        2.021947005918       -3.086802270856
 H          0.135252390126       -2.185429371307       -3.761653211137
 H         -0.186243259577       -2.617213934676       -1.359656261946
 C          0.031021653547        1.805145562730        2.982857071239
 C         -0.267042875911        0.032068959817        1.713973699383
 C          0.005073377661       -0.462862470688        3.047159163288
 C         -0.101579222244       -0.872802806166        0.624601354369
 C         -0.076330474516       -0.566520902780       -0.759481641002
 C         -0.074550359207        0.800071183283       -1.244409895780
 C         -0.005854362658        1.040458685929       -2.597705646311
 C          0.100240052165       -0.060770957666       -3.583611445309
 C          0.128617116513       -1.409664336225       -3.023959565961
 C         -0.034545382485       -1.635900160727       -1.691018335710
 O          0.137108937707       -1.632363046621        3.500387803699
 O          0.236579303193        0.161133420341       -4.820133679718
