21
Frame 4
 N         -0.057166554782        0.652761022748        3.875406663554
 N         -0.148413556155        1.452768988814        1.815704255446
 H          0.154537310080        0.607006089363        4.874929673935
 H         -0.255564588056        2.809809515619        3.474024772130
 H          0.039809878529       -1.785753146453        0.796854578515
 H          0.036263119503        1.735085275241       -0.642764848998
 H          0.219117645565        1.977161104898       -3.230520203216
 H          0.011420605420       -2.280086076437       -3.741594523466
 H         -0.185471547339       -2.504193254421       -1.197142519441
 C         -0.108490126788        1.787225629551        3.044539751454
 C          0.034857784872        0.044899753722        1.752101368777
 C          0.127989280309       -0.487729186798        3.117055486855
 C         -0.032393790534       -0.720724512511        0.601242982409
 C         -0.063103107984       -0.450903091158       -0.784238187258
 C         -0.013683707907        0.889734821833       -1.346672219505
 C          0.058278942489        0.985751676862       -2.702798802355
 C          0.032563456739       -0.121494784478       -3.648755496950
 C         -0.145812259882       -1.432830582167       -3.044603611123
 C         -0.184605350952       -1.544262134681       -1.673351807125
 O          0.292297776957       -1.665058203938        3.547105676078
 O          0.187568789914        0.050831094390       -4.886522989716
