21
Frame 4
 N          0.065646977466        0.695318460805        3.926677513371
 N          0.248811061858        1.460421543134        1.803091731126
 H         -0.043936159105        0.665032670097        4.920329014489
 H          0.263218183181        2.794718355531        3.458312510562
 H         -0.168291209939       -1.826897614759        0.905433545349
 H         -0.307677052485        1.674117453226       -0.701726206139
 H         -0.271723695407        2.031783315750       -3.149675883173
 H          0.277335708233       -2.243972168714       -3.777919182275
 H          0.116664513445       -2.617230428805       -1.252959180604
 C          0.191510438617        1.804567435529        3.059722771251
 C          0.094172096564        0.052831998130        1.726593943488
 C         -0.113404890899       -0.431899011110        3.115457020782
 C         -0.054808350481       -0.793686245096        0.614353823138
 C         -0.049720659848       -0.526631400764       -0.788374560224
 C         -0.159010129577        0.804526595808       -1.354582935694
 C         -0.129935085142        0.991450439448       -2.703838101539
 C          0.021339911728       -0.103307755389       -3.654053224210
 C          0.119482933476       -1.427918311941       -3.092134794761
 C          0.049213605996       -1.602976008508       -1.712486921582
 O         -0.297840290445       -1.582508818840        3.528948509467
 O          0.148952092764        0.182259496468       -4.871169392822
