21
Frame 4
 N         -0.023730570527        0.731833954832        3.895114707142
 N          0.055064670226        1.421446712110        1.783295973669
 H         -0.195279764989        0.706117695211        4.881053648419
 H          0.164267780127        2.867705131991        3.287182918654
 H          0.113514380242       -1.850475784481        0.876130139502
 H         -0.030073026930        1.627223689474       -0.631507145177
 H         -0.026745184846        2.032788202409       -3.020124336040
 H          0.142945789564       -2.208283463787       -3.742640390594
 H          0.140670404448       -2.662485270202       -1.410464460491
 C          0.140458745577        1.814081647021        2.997609223428
 C          0.018152513600        0.035820288763        1.752327716253
 C         -0.077155115218       -0.465129207754        3.117244377738
 C          0.041407620190       -0.822343286155        0.651652791659
 C          0.017046604960       -0.567871728504       -0.733956596443
 C         -0.027438765555        0.754592976503       -1.314484874760
 C          0.020668756307        1.004150213376       -2.673526665232
 C         -0.074319653988       -0.048164648864       -3.671964315703
 C          0.026569783907       -1.368942344218       -3.058479904347
 C          0.037660242813       -1.606505217090       -1.728467697610
 O         -0.235310834594       -1.590606215732        3.623018581687
 O         -0.228374375313        0.195046655097       -4.879013691755
