21
Frame 4
 N         -0.050383790032        0.759734481004        3.782360906674
 N          0.106461667787        1.408360988553        1.710361057145
 H         -0.301822697245        0.670068325381        4.746539695312
 H          0.016923538119        2.831594347312        3.194107295816
 H          0.133966737242       -1.906241553867        0.815485201056
 H          0.011710408093        1.533690377822       -0.469553548112
 H          0.021926374278        2.064667483724       -2.980920052367
 H         -0.117501789053       -2.232836748340       -3.689268567250
 H         -0.033690652292       -2.615447001565       -1.351664188158
 C          0.002294231304        1.796349136186        2.929394331105
 C          0.071072743518        0.012641417898        1.711804828848
 C          0.073646833549       -0.447773176473        3.107147022746
 C          0.109602359199       -0.805943690874        0.617507528038
 C          0.063971809207       -0.554167692915       -0.776179096787
 C         -0.032798705779        0.789316377743       -1.280340056316
 C         -0.084296651643        1.068079781498       -2.612453458178
 C         -0.027792272181       -0.016193177793       -3.592212557716
 C         -0.043069983782       -1.402442813817       -3.052932364091
 C          0.018418806806       -1.610740745966       -1.723565321693
 O          0.007518298794       -1.559579690075        3.735920163020
 O          0.053842734110        0.216863574564       -4.821538819091
