21
Frame 4
 N          0.084924293081        0.684060196306        3.863336827092
 N         -0.101666388561        1.409059225358        1.730565507119
 H         -0.027368598911        0.736416976033        4.868410481759
 H         -0.224757636426        2.786737444218        3.361350795897
 H          0.022032623197       -1.847071172974        0.769144108215
 H          0.071617116729        1.739600687915       -0.676887034300
 H          0.200934558951        2.041208722270       -3.087450100921
 H         -0.071079836109       -2.321183885293       -3.632216554909
 H         -0.042765887693       -2.569041764706       -1.301570739510
 C         -0.113847739590        1.766320793728        3.005318924593
 C         -0.045961828270        0.000185636626        1.767128872062
 C          0.137130936611       -0.510891663297        3.133659608610
 C          0.018796807255       -0.780251579147        0.647655425634
 C         -0.049191043914       -0.454243814432       -0.729846543077
 C         -0.006728205950        0.858577113852       -1.344800656023
 C          0.046526393948        1.043606329346       -2.678579523722
 C          0.007942946711       -0.050667262120       -3.664434139454
 C         -0.191618343139       -1.401159276152       -3.033468232685
 C         -0.144164103478       -1.551464206159       -1.652402738294
 O          0.254029104786       -1.663291276660        3.531432018545
 O          0.175214830775        0.083492775286       -4.876346306632
