21
Frame 4
 N          0.040229448178        0.685547331437        3.852369424701
 N          0.032320486114        1.481220359083        1.782877616413
 H          0.030419442989        0.615707424970        4.878528222046
 H         -0.142378443954        2.774795319274        3.407529292248
 H         -0.012046992369       -1.814286092462        0.877519446078
 H         -0.056517587783        1.693081029771       -0.681464305200
 H         -0.144684322465        2.018555291477       -3.222123716893
 H         -0.180047401495       -2.225745461559       -3.654087700767
 H          0.068650920363       -2.602898278940       -1.344801413710
 C          0.065937315614        1.762082854374        3.045386609880
 C          0.040289940995        0.056964802207        1.724774555640
 C         -0.005101224991       -0.524981496227        3.071370904245
 C          0.101440158502       -0.721417635784        0.619806405422
 C          0.185546379583       -0.447894718882       -0.777078043605
 C          0.090915069422        0.873932873843       -1.347365789278
 C         -0.016676154615        1.040956395764       -2.713983876719
 C          0.045783581125       -0.096561255646       -3.579435347005
 C         -0.005869799089       -1.403421126606       -2.998249151980
 C          0.034787560620       -1.565905352542       -1.677040471647
 O         -0.232398863539       -1.639388732598        3.593577350579
 O          0.059400486795        0.039656469047       -4.858110010448
