21
Frame 4
 N          0.122767103303        0.726432007193        3.917215316334
 N         -0.043439791266        1.558937943461        1.834624297451
 H         -0.086981441460        0.577732237279        4.885610508936
 H          0.016845270356        2.829167975731        3.608553291919
 H          0.097316902337       -1.803050577426        0.903652897946
 H         -0.019315958125        1.608591943749       -0.666854844180
 H          0.093509090091        2.023459282626       -3.166600887762
 H          0.023277213242       -2.294267543445       -3.642217028823
 H          0.142260365471       -2.634578885645       -1.421590285168
 C         -0.008924545333        1.816692698922        3.099713360164
 C          0.040798261392        0.127563770152        1.750001728414
 C          0.017339150427       -0.462387081879        3.065615122269
 C         -0.022590472323       -0.747733647753        0.608966562422
 C          0.007740402351       -0.516070935868       -0.778642135422
 C         -0.012466885808        0.785837393549       -1.376581884370
 C         -0.012480640181        1.034243291243       -2.723804662734
 C         -0.056121219638       -0.070243239033       -3.699987977441
 C         -0.089210186858       -1.435008116388       -3.022676674414
 C          0.048719287009       -1.605722634755       -1.706587052472
 O         -0.195963658033       -1.599256767432        3.475614031205
 O         -0.063078246953        0.079660885719       -4.944023684276
